20

C    -3.33953   0.97319   0.0
C    -2.70573   -0.24008   -2e-05
O    -2.4824   2.05271   4e-05
C    -1.31898   0.06444   0.0
H    -3.15463   -1.22774   -5e-05
C    -1.25183   1.43162   4e-05
H    -0.49758   -0.64428   -1e-05
C    -0.24063501855826086   2.2486173734426202   7.598473279786027e-05
C    0.922179301674509   2.259723410536522   -0.7220500748313682
O    -0.3580543828497587   3.2959238252294876   0.8885562365307664
C    1.6280562710588646   3.406949279761328   -0.2732533475993775
H    1.2460192828223715   1.5509746773174813   -1.4768920359534017
C    0.8220489548828851   3.975712267278089   0.675720385863147
H    2.5985043824699376   3.749085923494564   -0.6169901343616294
C    0.9671594068367451   5.038013615909062   1.410879417250618
H    0.20511679626139412   5.809519990662168   1.4052716295564331
H    1.850403779850046   5.1527521589177105   2.029482449888346
C    -4.600000096821704   1.2913332617835622   0.0
H    -5.3516256582966255   0.5289966845232378   -0.17281328712955776
H    -4.899764811798039   2.3191156648303637   0.1725100441785907
