13

C    -3.33953   0.97319   0.0
C    -2.70573   -0.24008   -2e-05
O    -2.4824   2.05271   4e-05
C    -1.31898   0.06444   0.0
H    -3.15463   -1.22774   -5e-05
C    -1.25183   1.43162   4e-05
H    -0.49758   -0.64428   -1e-05
C    -0.24063501855826086   2.2486173734426202   7.598473279786027e-05
H    -0.1594884223197109   3.0109721696549365   -0.7668613455041492
H    0.5218613689333734   2.167547825086106   0.7668759945733553
C    -4.600000096821704   1.2913332617835622   0.0
H    -5.3516256582966255   0.5289966845232378   -0.17281328712955776
H    -4.899764811798039   2.3191156648303637   0.1725100441785907
