27

C    -3.33953   0.97319   0.0
C    -2.70573   -0.24008   -2e-05
O    -2.4824   2.05271   4e-05
C    -1.31898   0.06444   0.0
H    -3.15463   -1.22774   -5e-05
C    -1.25183   1.43162   4e-05
H    -0.49758   -0.64428   -1e-05
C    -0.24063501855826086   2.2486173734426202   7.598473279786027e-05
C    0.922179301674509   2.259723410536522   -0.7220500748313682
O    -0.3580543828497587   3.2959238252294876   0.8885562365307664
C    1.6280562710588646   3.406949279761328   -0.2732533475993775
H    1.2460192828223715   1.5509746773174813   -1.4768920359534017
C    0.8220489548828851   3.975712267278089   0.675720385863147
H    2.5985043824699376   3.749085923494564   -0.6169901343616294
C    0.9671594068367451   5.038013615909062   1.410879417250618
C    1.3898881580510223   6.304491414614376   1.1091163950239722
O    0.6355410441392427   4.859415761073336   2.7368384425111665
C    1.3321952817085234   7.0181402940385205   2.3351607670660255
H    1.7037910265819598   6.691630868037465   0.14549223632343378
C    0.8803187288382766   6.112391863859151   3.256636560938936
H    1.5932543238968997   8.059006584835375   2.4946209178074685
C    0.6406989421500487   6.219124002843232   4.529896396296738
H    -0.3329406668354102   5.948062989020624   4.9229794822977775
H    1.41437756554555   6.579511713152292   5.198848826338692
C    -4.600000096821704   1.2913332617835622   0.0
H    -5.3516256582966255   0.5289966845232378   -0.17281328712955776
H    -4.899764811798039   2.3191156648303637   0.1725100441785907
