13

C    -3.49568   0.85609   -0.1231
C    -2.70585   -0.25151   0.03828
S    -2.53586   2.2998   -0.27882
C    -1.31336   0.05401   0.0383
H    -3.08758   -1.26059   0.15497
C    -1.05978   1.39053   -0.12306
H    -0.54424   -0.70257   0.15502
C    0.07175879024209886   2.028676063533083   -0.17194320544601846
H    0.3043363752538385   2.6554292508776687   -1.0257877949372856
H    0.7831774306018588   1.9339764438322828   0.6409963789495225
C    -4.790442266445407   0.9618975485116259   -0.17204319224482872
H    -5.40228260318092   0.07616523473313308   -0.30278012112099334
H    -5.258598578492715   1.9359386186755105   -0.08243890203360486
