466

C    -11.274850014109063   0.11667211087418679   12.04841025334196
C    -12.661890014109062   0.1737221108741868   12.037000253341958
C    -13.342900014109063   0.2659121108741868   10.83079025334196
C    -12.636890014109063   0.3010421108741868   9.636010253341958
C    -11.249850014109063   0.2439821108741868   9.647430253341959
C    -10.568840014109062   0.1518021108741868   10.853630253341958
C    -9.181792570276249   0.09475266428234996   10.865019005459304
C    -8.475787093009227   0.13058906758138678   9.670255926443104
C    -9.156526040830755   0.21181024410161903   8.463567540565872
C    -10.54350388055636   0.26652445651768875   8.452071015449457
H    -7.394588604511933   0.08633737914417539   9.679145790990864
C    -9.122480368619106   -0.008041145663329863   6.047260117774353
C    -8.449399982637638   0.20490676232093952   7.266912638745368
C    -11.22462203013469   0.3624159085028866   7.246026750265477
C    -10.517705408912216   0.3633263328748743   6.049722011013482
H    -7.369497202750425   0.2107931848732832   7.278131213804624
C    -11.199883531121124   0.49993130806994174   4.8455066763559325
C    -12.586962971729744   0.5575134443485292   4.834142408522753
C    -13.292969445970009   0.5216202619345072   6.028915499143105
C    -12.611938062003631   0.42903167331838404   7.235071120339988
H    -10.649538302692708   0.5271962927662455   3.914135322517902
H    -13.117938700279776   0.6297028427419207   3.8939819846919983
H    -14.374175664641662   0.5657439913177453   6.020021661232577
C    -13.313101973242091   0.20749178082655861   8.427179960642516
C    -14.695351267747043   0.07951851003572713   8.413161169097986
C    -15.400622040449006   0.03344739900295793   9.607552162495068
C    -14.72426138862699   0.12466550884326685   10.816290706649275
H    -15.22247121426857   0.006814331146957592   7.470884098645081
C    -17.465464753255603   -0.47695273703908464   10.775435536515385
C    -16.780004133008322   -0.1371966358931536   9.59194670292078
C    -15.430523525341254   0.09324016615945324   12.011224226102557
C    -16.81042384977011   -0.06960195619870332   11.995910662933248
H    -17.310403095152033   -0.15983111952310217   8.651460051493638
C    -17.51939798278314   -0.06037659503989043   13.19233577689685
C    -16.843211977094295   0.033706170385466055   14.40120100615998
C    -15.460946882594804   0.16162433246883603   14.415213594108266
C    -14.754936136169828   0.19634300144307787   13.220420216493949
H    -18.59683511205555   -0.16080295048646806   13.181398309573868
H    -17.393460983169   0.006667088105806934   15.33262093048549
H    -14.933811364819093   0.23420126923349302   15.357494669632395
C    -13.372484472969159   0.024478430573992738   13.22024443498924
C    -12.696016472549246   -0.18110924859849895   14.414945881917749
C    -11.309879093936276   -0.24904493137464048   14.425297974710652
C    -10.599474005905792   -0.10212254216704106   13.241840427745025
H    -13.249909841788876   -0.297227386135172   15.337304882956627
C    -9.27455711066282   -0.8572676196254654   15.598142759290468
C    -10.636869478363014   -0.4970938153679965   15.615922887427942
C    -9.212147772883291   -0.1554848213615884   13.253599005837792
C    -8.538507277227191   -0.3957697447932275   14.444963184237317
H    -11.18680924812589   -0.5633844162731445   16.54302715679021
C    -7.14791339637488   -0.4086801605353744   14.460598451883989
C    -6.437267580219596   -0.2589058841870305   13.277389081702093
C    -7.113749688974629   -0.05337242518387361   12.082673988448464
C    -8.50077865077236   0.0032655777210969794   12.071247221837861
H    -6.620638432908951   -0.5696044887604119   15.391812885879627
H    -5.356053307434337   -0.30302511692178064   13.2861837230022
H    -6.559862573479514   0.06261961862671264   11.160292397021758
R    -8.776320927780674   -1.374023024761148   16.495120586979855
R    -18.518781294267775   -0.9349713602235024   10.751189479460912
C    -6.190614739146537   -0.5936248479132693   -1.2729747168265737
C    -4.803574739146537   -0.65067484791327   -1.2615647168265731
C    -4.122564739146537   -0.7428648479132696   -0.05535471682657267
C    -4.8285747391465375   -0.7779948479132681   1.139425283173428
C    -6.215614739146538   -0.7209348479132682   1.1280052831734269
C    -6.896624739146538   -0.6287548479132679   -0.07819471682657309
C    -8.283672182979352   -0.5717054013214309   -0.08958346894391855
C    -8.989677660246373   -0.6075418046204668   1.1051796100722813
C    -8.308938712424847   -0.6887629811406986   2.311867995949514
C    -6.921960872699241   -0.743477193556769   2.3233645210659297
H    -10.070876148743668   -0.5632901161832549   1.0962897455245226
C    -8.342984384636496   -0.46891159137574856   4.728175418741035
C    -9.016064770617962   -0.6818594993600182   3.5085228977700194
C    -6.240842723120911   -0.8393686455419664   3.52940878624991
C    -6.947759344343385   -0.8402790699139533   4.725713525501906
H    -10.095967550505177   -0.6877459219123614   3.4973043227107636
C    -6.265581222134479   -0.9768840451090204   5.929928860159455
C    -4.878501781525857   -1.0344661813876086   5.941293127992634
C    -4.172495307285591   -0.9985729989735876   4.746520037372282
C    -4.853526691251971   -0.9059844103574648   3.5403644161753984
H    -6.815926450562895   -1.0041490298053235   6.861300213997486
H    -4.347526052975827   -1.106655579781   6.881453551823389
H    -3.091289088613938   -1.042696728356826   4.755413875282811
C    -4.152362780013511   -0.68444451786564   2.3482555758728703
C    -2.770113485508557   -0.5564712470748097   2.3622743674174007
C    -2.064842712806593   -0.5104001360420412   1.1678833740203176
C    -2.7412033646286087   -0.6016182458823505   -0.04085517013388973
H    -2.2429935389870312   -0.4837670681860392   3.3045514378703063
C    0.0   0.0   0.0
C    -0.6854606202472766   -0.3397561011459302   1.1834888335946063
C    -2.034941227914345   -0.5701929031985369   -1.2357886895871726
C    -0.6550409034854869   -0.4073507808403816   -1.2204751264178624
H    -0.15506165810356975   -0.317121617515981   2.1239754850217483
C    0.05393322952754254   -0.41657614199919557   -2.416900240381467
C    -0.6222527761613037   -0.510658907424552   -3.6257654696445956
C    -2.004517870660794   -0.6385770695079211   -3.639778057592882
C    -2.710528617085771   -0.6732957384821621   -2.444984679978565
H    1.1313703587999537   -0.31614978655261927   -2.4059627730584827
H    -0.0720037700866012   -0.48361982514489454   -4.557185393970106
H    -2.5316533884365056   -0.7111540062725779   -4.582059133117011
C    -4.09298028028644   -0.5014311676130769   -2.4448088984738563
C    -4.769448280706354   -0.29584348844058517   -3.639510345402365
C    -6.155585659319324   -0.22790780566444274   -3.6498624381952682
C    -6.865990747349809   -0.37483019487204156   -2.4664048912296375
H    -4.2155549114667235   -0.1797253509039134   -4.5618693464412425
C    -8.190907642592778   0.380314882586382   -4.822707222775084
C    -6.828595274892584   0.020141078328912154   -4.840487350912558
C    -8.25331698037231   -0.3214679156774938   -2.4781634693224044
C    -8.926957476028408   -0.08118299224585462   -3.669527647721929
H    -6.278655505129709   0.08643167923406059   -5.767591620274826
C    -10.31755135688072   -0.068272576503707   -3.6851629153686014
C    -11.028197173036004   -0.2180468528520506   -2.501953545186706
C    -10.351715064280972   -0.42358031185520695   -1.3072384519330784
C    -8.96468610248324   -0.4802183147601781   -1.2958116853224757
H    -10.844826320346648   0.09265175172133033   -4.616377349364243
H    -12.109411445821264   -0.17392762011729973   -2.510748186486812
H    -10.905602179776086   -0.5395723556657925   -0.384856860506372
R    -8.689143825474924   0.8970702877220655   -5.719685050464471
C    7.2908327229944465   1.0720378477513979   1.2983003876672703
C    5.903792722994448   1.129087847751398   1.2868903876672688
C    5.222782722994447   1.221277847751398   0.08068038766727012
C    5.928792722994446   1.2564078477513978   -1.1140996123327314
C    7.315832722994447   1.199347847751398   -1.1026796123327303
C    7.996842722994447   1.107167847751398   0.10352038766726876
C    9.38389016682726   1.050118401159561   0.11490913978461512
C    10.089895644094282   1.085954804458598   -1.0798539392315847
C    9.409156696272754   1.16717598097883   -2.286542325108817
C    8.02217885654715   1.2218901933948998   -2.2980388502252325
H    11.171094132591577   1.0417031160213863   -1.0709640746838252
C    9.443202368484403   0.9473245912138812   -4.702849747900337
C    10.116282754465871   1.1602724991981508   -3.483197226929321
C    7.34106070696882   1.3177816453800977   -3.5040831154092125
C    8.047977328191294   1.3186920697520854   -4.700387854661208
H    11.196185534353084   1.1661589217504944   -3.4719786518700655
C    7.365799205982386   1.455297044947153   -5.904603189318757
C    5.978719765373766   1.5128791812257405   -5.915967457151936
C    5.272713291133501   1.4769859988117182   -4.721194366531584
C    5.953744675099879   1.3843974101955951   -3.515038745334701
H    7.916144434410802   1.4825620296434567   -6.835974543156787
H    5.4477440368237335   1.585068579619132   -6.856127880982691
H    4.191507072461848   1.5211097281949564   -4.730088204442112
C    5.252580763861419   1.1628575177037699   -2.322929905032174
C    3.8703314693564668   1.0348842469129382   -2.3369486965767035
C    3.1650606966545034   0.9888131358801691   -1.142557703179621
C    3.841421348476519   1.080031245720478   0.0661808409745854
H    3.34321152283494   0.9621800680241687   -3.279225767029608
C    1.1002179838479071   0.47841299983812646   0.025325670840695667
C    1.7856786040951873   0.8181691009840575   -1.1581631627539097
C    3.1351592117622555   1.0486059030366643   1.2611143604278683
C    1.7552588873333994   0.8857637806785078   1.245800797258559
H    1.255279641951477   0.7955346173541089   -2.0986498141810515
C    1.04628475432037   0.8949891418373207   2.4422259112221614
C    1.7224707600092144   0.9890719072626771   3.65109114048529
C    3.1047358545087054   1.116990069346047   3.665103728433577
C    3.8107466009336814   1.151708738320289   2.4703103508192594
H    -0.031152374952041262   0.7945627863907431   2.431288443899179
H    1.1722217539345101   0.962032824983018   4.5825110648108005
H    3.631871372284417   1.1895670061107042   4.607384803957705
C    5.193198264134351   0.9798441674512038   2.470134569314551
C    5.869666264554263   0.7742564882787122   3.6648360162430595
C    7.2558036431672335   0.7063208055025706   3.675188109035963
C    7.966208731197717   0.8532431947101701   2.4917305620703356
H    5.315772895314634   0.6581383507420391   4.587195017281937
C    9.291125626440689   0.09809811725174572   4.848032893615779
C    7.928813258740496   0.4582719215092146   4.865813021753253
C    9.353534964220218   0.7998809155156227   2.5034891401631025
C    10.027175459876318   0.5595959920839836   3.694853318562627
H    7.37887348897762   0.3919813206040666   5.79291729111552
C    11.41776934072863   0.5466855763418367   3.7104885862092996
C    12.128415156883912   0.6964598526901806   2.527279216027404
C    11.45193304812888   0.9019933116933375   1.332564122773775
C    10.064904086331149   0.9586313145983081   1.3211373561631723
H    11.945044304194559   0.3857612481167992   4.641703020204938
H    13.209629429669173   0.6523406199554305   2.5360738573275103
H    12.005820163623996   1.0179853555039238   0.41018253134706856
R    9.789361809322836   -0.41865728788393686   5.7450107213051655
C    12.375067997956974   0.3617408889639418   -12.023084582501264
C    13.762107997956972   0.3046908889639411   -12.011674582501263
C    14.443117997956973   0.21250088896394154   -10.805464582501262
C    13.737107997956972   0.17737088896394299   -9.610684582501262
C    12.350067997956971   0.23443088896394287   -9.622104582501263
C    11.66905799795697   0.32661088896394325   -10.828304582501262
C    10.282010554124158   0.3836603355557802   -10.839693334618607
C    9.576005076857136   0.3478239322567443   -9.644930255602409
C    10.256744024678662   0.26660275573651254   -8.438241869725175
C    11.643721864404268   0.2118885433204421   -8.42674534460876
H    8.494806588359841   0.39207562069395624   -9.653820120150167
C    10.222698352467013   0.48645414550146254   -6.021934446933654
C    9.549617966485547   0.2735062375171929   -7.24158696790467
C    12.324840013982598   0.11599709133524466   -7.22070107942478
C    11.617923392760124   0.11508666696325781   -6.024396340172784
H    8.469715186598332   0.2676198149648497   -7.252805542963926
C    12.30010151496903   -0.02151830823180928   -4.820181005515234
C    13.687180955577652   -0.07910044451039744   -4.808816737682055
C    14.39318742981792   -0.043207262096376486   -6.003589828302408
C    13.712156045851538   0.049381326519746305   -7.209745449499291
H    11.749756286540615   -0.04878329292811234   -3.888809651677203
H    14.218156684127683   -0.15128984290378888   -3.8686563138513
H    15.474393648489572   -0.08733099147961487   -5.994695990391879
C    14.413319957089998   0.2709212190115711   -8.40185428980182
C    15.795569251594953   0.39889448980240144   -8.387835498257289
C    16.500840024296917   0.44496560083516995   -9.582226491654373
C    15.8244793724749   0.35374749099486064   -10.79096503580858
H    16.32268919811648   0.4715986686911719   -7.445558427804383
C    18.56568273710351   0.955365736877211   -10.75010986567469
C    17.880222116856235   0.6156096357312809   -9.566621032080084
C    16.530741509189166   0.3851728336786742   -11.985898555261862
C    17.910641833618026   0.5480149560368295   -11.970584992092553
H    18.41062107899994   0.63824411936123   -8.62613438065294
C    18.619615966631056   0.5387895948780155   -13.167010106056155
C    17.943429960942208   0.4447068294526591   -14.375875335319284
C    16.561164866442716   0.31678866736928996   -14.38988792326757
C    15.855154120017739   0.28206999839504904   -13.195094545653253
H    19.697053095903467   0.6392159503245918   -13.156072638733173
H    18.49367896701691   0.47174591173231656   -15.307295259644794
H    16.034029348667005   0.24421173060463325   -15.3321689987917
C    14.47270245681707   0.45393456926413417   -13.194918764148545
C    13.796234456397157   0.6595222484366259   -14.389620211077053
C    12.410097077784185   0.7274579312127684   -14.399972303869957
C    11.6996919897537   0.5805355420051695   -13.216514756904326
H    14.350127825636786   0.7756403859732977   -15.311979212115931
C    10.374775094510731   1.3356806194635933   -15.572817088449773
C    11.737087462210924   0.9755068152061233   -15.590597216587247
C    10.3123657567312   0.6338978211997173   -13.228273334997093
C    9.638725261075102   0.8741827446313565   -14.419637513396617
H    12.2870272319738   1.0417974161112715   -16.517701485949512
C    8.24813138022279   0.8870931603735042   -14.43527278104329
C    7.537485564067506   0.7373188840251605   -13.252063410861394
C    8.213967672822537   0.5317854250220042   -12.057348317607767
C    9.60099663462027   0.475147422117033   -12.045921550997166
H    7.720856416756861   1.0480174885985414   -15.366487215038932
H    6.4562712912822455   0.7814381167599114   -13.2608580521615
H    7.660080557327424   0.41579338121141857   -11.13496672618106
R    9.876538911628586   1.8524360245992768   -16.469794916139158
C    25.856515460097956   2.027403584628609   -9.45180947800742
C    24.469475460097957   2.084453584628609   -9.46321947800742
C    23.788465460097957   2.176643584628609   -10.66942947800742
C    24.494475460097956   2.211773584628609   -11.864209478007421
C    25.88151546009796   2.154713584628609   -11.85278947800742
C    26.56252546009796   2.0625335846286093   -10.64658947800742
C    27.949572903930772   2.0054841380367723   -10.635200725890074
C    28.655578381197795   2.0413205413358093   -11.829963804906274
C    27.974839433376264   2.1225417178560413   -13.036652190783506
C    26.58786159365066   2.177255930272111   -13.048148715899922
H    29.73677686969509   1.9970688528985976   -11.821073940358515
C    28.008885105587915   1.9026903280910923   -15.452959613575027
C    28.681965491569382   2.115638236075362   -14.23330709260401
C    25.90674344407233   2.2731473822573087   -14.254192981083902
C    26.613660065294805   2.2740578066292967   -15.450497720335898
H    29.761868271456596   2.1215246586277057   -14.222088517544755
C    25.931481943085895   2.410662781824364   -16.654713054993444
C    24.54440250247728   2.4682449181029518   -16.666077322826624
C    23.83839602823701   2.4323517356889295   -15.471304232206274
C    24.519427412203388   2.3397631470728064   -14.26514861100939
H    26.481827171514315   2.437927766520668   -17.586084408831475
H    24.013426773927247   2.540434316496343   -17.606237746657378
H    22.757189809565357   2.4764754650721676   -15.480198070116801
C    23.818263500964928   2.118223254580981   -13.073039770706863
C    22.436014206459976   1.9902499837901493   -13.087058562251393
C    21.730743433758015   1.94417887275738   -11.89266756885431
C    22.40710408558003   2.035396982597689   -10.683929024700104
H    21.908894259938453   1.9175458049013798   -14.029335632704298
C    19.66590072095142   1.4337787367153374   -10.724784194833994
C    20.3513613411987   1.7735348378612685   -11.9082730284286
C    21.70084194886577   2.0039716399138756   -9.488995505246821
C    20.320941624436912   1.8411295175557187   -9.50430906841613
H    19.82096237905499   1.75090035423132   -12.84875967985574
C    19.611967491423883   1.8503548787145316   -8.307883954452528
C    20.288153497112727   1.9444376441398883   -7.099018725189399
C    21.670418591612215   2.0723558062232583   -7.085006137241113
C    22.376429338037195   2.1070744751975004   -8.27979951485543
H    18.53453036215147   1.749928523267954   -8.31882142177551
H    19.737904491038023   1.917398561860229   -6.167598800863889
H    22.197554109387927   2.1449327429879155   -6.142725061716984
C    23.758881001237864   1.9352099043284148   -8.279975296360139
C    24.435349001657773   1.7296222251559232   -7.08527384943163
C    25.821486380270745   1.6616865423797815   -7.074921756638727
C    26.53189146830123   1.808608931587381   -8.258379303604354
H    23.881455632418145   1.6135040876192503   -6.162914848392752
C    27.8568083635442   1.0534638541289567   -5.902076972058911
C    26.49449599584401   1.4136376583864259   -5.884296843921437
C    27.919217701323728   1.7552466523928336   -8.246620725511587
C    28.59285819697983   1.5149617289611945   -7.055256547112062
H    25.94455622608113   1.3473470574812776   -4.957192574559169
C    29.98345207783214   1.5020513132190478   -7.03962127946539
C    30.694097893987422   1.651825589567392   -8.222830649647285
C    30.01761578523239   1.8573590485705487   -9.417545742900915
C    28.63058682343466   1.9139970514755191   -9.428972509511517
H    30.510727041298072   1.3411269849940104   -6.1084068454697515
H    31.775312166772682   1.6077063568326415   -8.214036008347179
H    30.571502900727506   1.9733510923811348   -10.339927334327621
R    28.355044546426345   0.5367084489932743   -5.005099144369524
C    30.940750735060487   1.317106625841153   -22.773194448175953
C    32.32779073506048   1.2600566258411523   -22.76178444817595
C    33.00880073506048   1.1678666258411528   -21.55557444817595
C    32.30279073506048   1.132736625841154   -20.360794448175948
C    30.91575073506048   1.1897966258411539   -20.37221444817595
C    30.23474073506048   1.2819766258411542   -21.578414448175952
C    28.847693291227667   1.3390260724329912   -21.589803200293293
C    28.141687813960647   1.3031896691339555   -20.395040121277095
C    28.82242676178217   1.2219684926137235   -19.188351735399863
C    30.20940460150778   1.1672542801976533   -19.176855210283446
H    27.060489325463355   1.3474413575711672   -20.403929985824856
C    28.788381089570525   1.4418198823786736   -16.77204431260834
C    28.11530070358906   1.228871974394404   -17.991696833579358
C    30.89052275108611   1.0713628282124557   -17.97081094509947
C    30.183606129863637   1.070452403840469   -16.77450620584747
H    27.035397923701844   1.222985551842061   -18.002915408638614
C    30.86578425207254   0.9338474286454018   -15.570290871189924
C    32.25286369268116   0.8762652923668137   -15.558926603356744
C    32.95887016692143   0.9121584747808347   -16.753699693977094
C    32.277838782955044   1.0047470633969575   -17.95985531517398
H    30.315439023644128   0.9065824439490988   -14.638919517351892
H    32.78383942123119   0.8040758939734223   -14.61876617952599
H    34.04007638559308   0.8680347453975963   -16.744805856066566
C    32.979002694193504   1.2262869558887823   -19.15196415547651
C    34.36125198869846   1.3542602266796124   -19.137945363931976
C    35.06652276140043   1.4003313377123812   -20.33233635732906
C    34.390162109578405   1.3091132278720718   -21.541074901483267
H    34.888371935219986   1.426964405568383   -18.19566829347907
C    37.13136547420702   1.910731473754422   -21.50021973134938
C    36.44590485395974   1.5709753726084918   -20.31673089775477
C    35.09642424629268   1.3405385705558852   -22.73600842093655
C    36.47632457072154   1.5033806929140408   -22.72069485776724
H    36.976303816103446   1.5936098562384413   -19.376244246327627
C    37.18529870373457   1.4941553317552265   -23.917119971730845
C    36.50911269804572   1.4000725663298703   -25.12598520099397
C    35.126847603546224   1.2721544042465012   -25.139997788942257
C    34.420836857121245   1.23743573527226   -23.94520441132794
H    38.26273583300698   1.5945816872018028   -23.906182504407862
H    37.05936170412041   1.4271116486095277   -26.05740512531948
H    34.59971208577051   1.1995774674818445   -26.082278864466385
C    33.038385193920575   1.4093003061413452   -23.94502862982323
C    32.361917193500666   1.6148879853138371   -25.139730076751743
C    30.975779814887698   1.6828236680899793   -25.150082169544643
C    30.265374726857214   1.5359012788823807   -23.966624622579015
H    32.9158105627403   1.7310061228505087   -26.06208907779062
C    28.940457831614243   2.2910463563408046   -26.32292695412446
C    30.302770199314434   1.9308725520833345   -26.340707082261932
C    28.87804849383471   1.5892635580769285   -23.978383200671782
C    28.204407998178613   1.8295484815085676   -25.169747379071307
H    30.852709969077313   1.9971631529884828   -27.2678113516242
C    26.8138141173263   1.8424588972507152   -25.18538264671798
C    26.103168301171017   1.6926846209023716   -24.00217327653608
C    26.77965040992605   1.4871511618992153   -22.807458183282453
C    28.16667937172378   1.430513158994244   -22.796031416671855
H    26.28653915386037   2.0033832254757526   -26.11659708071362
H    25.021954028385757   1.7368038536371224   -24.010967917836187
H    26.225763294430937   1.3711591180886296   -21.885076591855746
R    28.442221648732097   2.807801761476488   -27.219904781813845
C    44.42219819720146   2.9827693215058204   -20.201919343682107
C    43.03515819720146   3.0398193215058202   -20.21332934368211
C    42.35414819720146   3.1320093215058202   -21.419539343682107
C    43.06015819720147   3.1671393215058203   -22.61431934368211
C    44.447198197201466   3.1100793215058204   -22.602899343682108
C    45.12820819720147   3.0178993215058205   -21.396699343682105
C    46.51525564103428   2.9608498749139835   -21.385310591564764
C    47.2212611183013   2.9966862782130206   -22.580073670580962
C    46.54052217047977   3.0779074547332526   -23.78676205645819
C    45.153544330754166   3.1326216671493223   -23.79825858157461
H    48.3024596067986   2.952434589775809   -22.5711838060332
C    46.574567842691415   2.8580560649683036   -26.203069479249717
C    47.247648228672894   3.0710039729525733   -24.9834169582787
C    44.47242618117584   3.22851311913452   -25.004302846758588
C    45.17934280239832   3.229423543506508   -26.200607586010587
H    48.3275510085601   3.076890395504917   -24.972198383219443
C    44.49716468018941   3.3660285187015755   -27.40482292066813
C    43.11008523958078   3.423610654980163   -27.41618718850131
C    42.40407876534052   3.3877174725661408   -26.221414097880963
C    43.08511014930689   3.2951288839500177   -25.015258476684078
H    45.04750990861782   3.3932935033978793   -28.336194274506163
H    42.57910951103075   3.4958000533735545   -28.356347612332065
H    41.32287254666887   3.431841201949379   -26.23030793579149
C    42.38394623806844   3.0735889914581924   -23.82314963638155
C    41.00169694356348   2.9456157206673605   -23.837168427926084
C    40.296426170861515   2.8995446096345914   -22.642777434529
C    40.97278682268354   2.9907627194749002   -21.43403889037479
H    40.47457699704196   2.872911541778591   -24.779445498378987
C    38.23158345805493   2.3891444735925487   -21.47489406050868
C    38.917044078302204   2.72890057473848   -22.658382894103287
C    40.26652468596927   2.959337376791087   -20.23910537092151
C    38.88662436154042   2.79649525443293   -20.25441893409082
H    38.3866451161585   2.7062660911085312   -23.59886954553043
C    38.17765022852739   2.805720615591743   -19.057993820127212
C    38.85383623421623   2.8998033810170996   -17.849128590864087
C    40.236101328715726   3.0277215431004696   -17.8351160029158
C    40.9421120751407   3.0624402120747116   -19.029909380530118
H    37.10021309925498   2.7052942601451653   -19.0689312874502
H    38.30358722814153   2.87276429873744   -16.917708666538577
H    40.76323684649143   3.1002984798651267   -16.89283492739167
C    42.32456373834137   2.890575641205626   -19.030085162034826
C    43.00103173876128   2.6849879620331345   -17.835383715106317
C    44.38716911737425   2.617052279256993   -17.825031622313414
C    45.09757420540473   2.7639746684645923   -19.00848916927904
H    42.447138369521646   2.5688698244964616   -16.91302471406744
C    46.42249110064771   2.008829591006168   -16.6521868377336
C    45.06017873294751   2.369003395263637   -16.634406709596124
C    46.48490043842724   2.710612389270045   -18.996730591186274
C    47.15854093408334   2.470327465838406   -17.80536641278675
H    44.51023896318464   2.302712794358489   -15.707302440233859
C    48.54913481493565   2.457417050096259   -17.789731145140077
C    49.259780631090926   2.607191326444603   -18.972940515321977
C    48.5832985223359   2.81272478544776   -20.167655608575604
C    47.19626956053816   2.8693627883527304   -20.1790823751862
H    49.076409778401576   2.2964927218712217   -16.85851671114444
H    50.34099490387619   2.563072093709853   -18.96414587402187
H    49.13718563783102   2.928716829258346   -21.09003720000231
R    46.92072728352985   1.4920741858704853   -15.755209010044213
C    49.506433472163984   2.2724723627183643   -33.523304313850645
C    50.89347347216399   2.2154223627183636   -33.51189431385064
C    51.57448347216398   2.123232362718364   -32.30568431385064
C    50.868473472163984   2.0881023627183652   -31.110904313850636
C    49.48143347216399   2.145162362718365   -31.122324313850637
C    48.80042347216399   2.2373423627183655   -32.32852431385064
C    47.41337602833118   2.2943918093102025   -32.339913065967984
C    46.70737055106415   2.2585554060111668   -31.145149986951782
C    47.388109498885676   2.177334229490935   -29.93846160107455
C    48.775087338611286   2.1226200170748646   -29.926965075958133
H    45.62617206256686   2.3028070944483785   -31.154039851499544
C    47.35406382667403   2.3971856192558847   -27.522154178283028
C    46.680983440692565   2.1842377112716154   -28.741806699254045
C    49.45620548818962   2.026728565089667   -28.720920810774157
C    48.74928886696714   2.0258181407176803   -27.524616071522157
H    45.60108066080535   2.178351288719272   -28.753025274313302
C    49.43146698917605   1.8892131655226128   -26.32040073686461
C    50.81854642978467   1.8316310292440248   -26.30903646903143
C    51.52455290402493   1.8675242116580457   -27.50380955965178
C    50.84352152005855   1.9601128002741688   -28.709965180848666
H    48.88112176074763   1.8619481808263099   -25.38902938302658
H    51.3495221583347   1.7594416308506333   -25.368876045200675
H    52.60575912269658   1.823400482274807   -27.494915721741254
C    51.54468543129701   2.1816526927659936   -29.902074021151197
C    52.926934725801964   2.3096259635568237   -29.888055229606664
C    53.632205498503936   2.3556970745895924   -31.082446223003746
C    52.95584484668191   2.264478964749283   -32.29118476715796
H    53.454054672323494   2.382330142445594   -28.945778159153758
C    55.69704821131053   2.8660972106316334   -32.25032959702407
C    55.01158759106325   2.526341109485703   -31.066840763429457
C    53.66210698339618   2.2959043074330965   -33.48611828661124
C    55.04200730782504   2.458746429791252   -33.47080472344193
H    55.541986553206954   2.5489755931156526   -30.126354112002314
C    55.75098144083807   2.449521068632438   -34.667229837405536
C    55.07479543514923   2.3554383032070816   -35.87609506666866
C    53.69253034064973   2.2275201411237124   -35.89010765461695
C    52.98651959422475   2.1928014721494713   -34.69531427700263
H    56.82841857011048   2.549947424079014   -34.656292370082554
H    55.62504444122392   2.3824773854867387   -36.80751499099417
H    53.16539482287402   2.1549432043590557   -36.832388730141076
C    51.60406793102408   2.3646660430185564   -34.69513849549792
C    50.92759993060417   2.5702537221910484   -35.889839942426434
C    49.54146255199121   2.6381894049671906   -35.900192035219334
C    48.83105746396072   2.491267015759592   -34.71673448825371
H    51.4814932998438   2.68637185972772   -36.81219894346531
C    47.50614056871775   3.246412093218016   -37.07303681979915
C    48.868452936417945   2.886238288960546   -37.090816947936624
C    47.44373123093822   2.54462929495414   -34.72849306634647
C    46.77009073528212   2.784914218385779   -35.919857244746
H    49.41839270618082   2.952528889865694   -38.01792121729889
C    45.37949685442981   2.7978246341279265   -35.93549251239267
C    44.66885103827452   2.648050357779583   -34.75228314221077
C    45.34533314702956   2.4425168987764265   -33.557568048957144
C    46.73236210882728   2.385878895871455   -33.54614128234655
H    44.85222189096388   2.958748962352964   -36.86670694638831
H    43.58763676548926   2.6921695905143337   -34.76107778351088
H    44.79144603153444   2.326524854965841   -32.63518645753044
R    47.00790438583561   3.7631674983536993   -37.97001464748853
R    56.750364752322696   3.3241158338160512   -32.22608353996959
