20

C    -3.82934   0.1564   -0.0
C    -2.50483   0.1564   -4e-05
H    -4.39166   0.87762   0.58804
H    -1.94249   0.87762   0.58796
C    -0.712746542785001   -1.8810917087298475   -2.5963889126979316
C    -0.5764302867431315   -2.5400927868374437   -1.40316296984731
H    -0.34361458890414065   -2.137871497825242   -3.581818743094913
S    -1.634422668817862   -0.4165578917654047   -2.4080925171705143
C    -1.2165397605384878   -1.8683051659407202   -0.3208819874460894
H    -0.04028745414738011   -3.475660524044484   -1.2813406912874998
C    -1.832497105370143   -0.7059355982730973   -0.7031372868313583
H    -1.2094369910829763   -2.2486712855979523   0.6954120619721695
C    -5.739279513443041   -0.758405040762308   -1.6749821899331971
C    -5.742549582845924   -1.3539082195556709   -0.4412812683184401
H    -6.484530957070179   -0.7764535801003913   -2.460819797902825
S    -4.275189736258706   0.1459129745731647   -1.9366150746859307
C    -4.56006913949885   -1.0857161637487642   0.3085079642021214
H    -6.553655127790419   -1.9674282107689651   -0.06276071307482772
C    -3.670758834707958   -0.28925637841073204   -0.36335851697700855
H    -4.393898813488533   -1.4775757215560992   1.306714325085814
