88

C 0.681030 -0.092180 1.206200
C -0.706010 -0.035130 1.194790
C -1.387020 0.057060 -0.011420
C -0.681010 0.092190 -1.206200
C 0.706030 0.035130 -1.194780
C 1.387040 -0.057050 0.011420
C 2.774051 -0.114099 0.022824
C 3.480070 -0.078967 -1.171985
C 2.799051 0.013204 -2.378191
C 1.412040 0.070253 -2.389595
H 4.561272 -0.123389 -1.163210
H 3.349390 0.040539 -3.309541
H 0.881180 0.141983 -3.329848
C -1.362019 0.184370 -2.412398
C -2.749059 0.241421 -2.423824
C -3.455071 -0.493719 -1.229032
C -2.774062 0.114101 -0.022834
H -0.811691 0.211870 -3.343748
H -3.280017 0.313321 -3.364016
H -4.536265 -1.149297 -1.237943
C -1.412001 -0.070262 2.389581
C -0.730978 -0.162444 3.595805
C 0.656044 -0.219502 3.607209
C 1.362035 -0.184370 2.412418
C 2.724079 -0.368730 4.824798
C 1.337039 -0.311680 4.813388
C 2.749079 -0.241420 2.423818
C 3.430089 -0.333600 3.630018
C 4.817100 -0.390649 3.641422
C 5.523119 -0.355517 2.446613
C 4.842100 -0.263346 1.240407
C 3.455089 -0.206297 1.229003
H 5.347978 -0.462389 4.581662
H 6.604321 -0.399939 2.455387
H 5.392439 -0.236011 0.309057
C 0.631048 -0.346812 6.008179
C 1.312071 -1.138994 7.214403
C 2.699093 -0.496052 7.225807
C 3.405084 -0.460920 6.031016
H 0.761842 -1.866344 8.145825
H 3.229945 -0.567957 8.166051
H 4.486272 -0.505515 6.039903
C -2.824105 -0.140523 4.779093
C -1.437065 -0.197576 4.790535
C -2.799074 -0.013214 2.378113
C -3.505099 -0.048343 3.572887
C -4.892110 0.008708 3.561439
C -5.573114 0.100891 2.355205
C -4.867080 0.136010 1.160425
C -3.480070 0.078958 1.171873
C -0.756090 -0.289756 5.996752
C -1.462129 -0.324886 7.191549
C -2.849151 -0.267843 7.180102
C -3.530126 -0.175663 5.973885
C -5.598125 -0.026426 4.756151
C -6.960001 0.157928 2.343657
C -7.666078 0.122809 3.538433
C -6.985135 0.030628 4.744671
C -7.691211 -0.004498 5.939412
C -9.078251 0.052557 5.927925
C -9.759194 0.144748 4.721677
C -9.053117 0.179874 3.526936
H -9.628752 0.025140 6.859185
H -10.840383 0.189272 4.712727
H -9.583915 0.251855 2.586667
C -7.640943 0.250108 1.137422
C -6.934871 0.285236 -0.057356
C -5.502248 0.922019 0.034904
H -8.722138 0.294469 1.128444
H -7.465577 0.357049 -0.997698
H -4.906266 1.643278 -0.815645
C -4.917164 -0.118598 5.962395
C -3.555307 -0.302960 8.374881
C -5.623260 -0.153725 7.157162
C -4.942317 -0.245906 8.363400
C -5.648393 -0.281032 9.558141
C -7.035433 -0.223977 9.546654
C -7.716376 -0.131786 8.340407
C -7.010299 -0.096660 7.145666
H -5.117616 -0.353003 10.498421
H -7.585934 -0.251394 10.477914
H -8.797565 -0.087263 8.331457
C -0.735655 0.276758 8.478649
C -1.487336 -0.452187 9.592628
C -2.874346 -0.395132 9.581125
H 0.391142 0.926061 8.568504
H -0.956531 -0.523993 10.532905
H -3.424732 -0.422390 10.512450
