62

C 0.681030 -0.092180 1.206200
C -0.706010 -0.035130 1.194790
C -1.387020 0.057060 -0.011420
C -0.681010 0.092190 -1.206200
C 0.706030 0.035130 -1.194780
C 1.387040 -0.057050 0.011420
H -2.468210 0.101580 -0.020310
H -1.211860 0.164170 -2.146440
C 2.824042 0.140532 -4.779165
C 1.437002 0.197583 -4.790580
C 0.731000 0.162442 -3.595782
C 1.412019 0.070262 -2.389590
C 2.799060 0.013222 -2.378185
C 3.505061 0.048352 -3.572973
H 3.374362 0.168034 -5.710520
H 0.906035 0.269483 -5.730767
H -0.350194 0.206863 -3.604683
C 3.480095 -0.078980 -1.171960
C 4.892072 -0.008687 -3.561562
C 5.573100 -0.100869 -2.355341
C 4.867106 -0.136020 -1.160549
H 5.442397 0.018588 -4.492923
C 5.548133 -0.228209 0.045638
C 6.935174 -0.285250 0.057043
C 7.641168 -0.250090 -1.137759
C 6.960141 -0.157900 -2.343946
H 4.997819 -0.255725 0.976996
H 7.466147 -0.357157 0.997227
H 8.722362 -0.294503 -1.128864
H 7.510476 -0.130376 -3.275293
C 2.774062 -0.114100 0.022829
H 3.304817 -0.185997 0.963136
C 1.362040 -0.184370 2.412410
C 0.656030 -0.219500 3.607190
C -0.731010 -0.162440 3.595770
C -1.412020 -0.070260 2.389570
H 2.443230 -0.228890 2.421300
H 1.186880 -0.291480 4.547430
C -2.849022 -0.267842 7.180155
C -1.461982 -0.324893 7.191570
C -0.755980 -0.289752 5.996772
C -1.436999 -0.197572 4.790580
C -2.824040 -0.140532 4.779175
C -3.530041 -0.175662 5.973963
H -3.399342 -0.295344 8.111510
H -0.931015 -0.396793 8.131757
H 0.325214 -0.334173 6.005673
C -3.505075 -0.048330 3.572950
C -4.917052 -0.118623 5.962552
C -5.598080 -0.026441 4.756331
C -4.892086 0.008710 3.561539
H -5.467377 -0.145898 6.893913
C -5.573113 0.100899 2.355352
C -6.960154 0.157940 2.343947
C -7.666148 0.122780 3.538749
C -6.985121 0.030590 4.744936
H -5.022799 0.128415 1.423994
H -7.491127 0.229847 1.403763
H -8.747342 0.167193 3.529854
H -7.535456 0.003066 5.676283
C -2.799042 -0.013210 2.378161
H -3.329797 0.058687 1.437854
