58

C 0.000000 0.000000 0.000000
C 1.324510 0.000000 -0.000040
H 1.886850 0.721220 0.587960
H -0.562350 -0.721220 -0.588010
C 6.109015 -0.728215 -0.600726
C 5.391045 0.192766 0.149993
C 4.003080 0.170172 0.133877
C 3.333094 -0.773388 -0.632932
C 4.051073 -1.694370 -1.383640
C 5.439028 -1.671775 -1.367535
H 7.190940 -0.710657 -0.588068
H 5.913209 0.928303 0.747803
H 3.443427 0.888105 0.719021
C 3.381066 -2.637943 -2.150485
C 6.156986 -2.592741 -2.118229
C 5.486979 -3.536318 -2.885053
C 4.099024 -3.558909 -2.901179
H 7.238913 -2.575052 -2.105756
C 3.429045 -4.502466 -3.667999
C 4.147024 -5.423449 -4.418707
C 5.534988 -5.400860 -4.402570
C 6.204967 -4.457302 -3.635751
H 2.347121 -4.520021 -3.680673
H 3.624867 -6.158985 -5.016525
H 6.094649 -6.118794 -4.987706
H 7.286894 -4.439771 -3.623083
C 1.993094 -2.660524 -2.166566
C 1.275128 -1.739557 -1.415859
C 1.945125 -0.796002 -0.649053
H 1.470716 -3.395971 -2.764302
H 0.193202 -1.757205 -1.428386
C -4.784513 0.734861 0.592475
C -4.066533 -0.185924 -0.158474
C -2.678569 -0.165539 -0.139632
C -2.008592 0.775604 0.630149
C -2.726580 1.696380 1.381101
C -4.114536 1.676005 1.362255
H -5.866438 0.718888 0.577859
H -4.588690 -0.919633 -0.758534
H -2.118908 -0.883257 -0.725033
C -2.056583 2.637561 2.150888
C -4.832503 2.596764 2.113195
C -4.162505 3.537925 2.882990
C -2.774550 3.558320 2.901827
H -5.914430 2.580945 2.098414
C -2.104581 4.499473 3.671603
C -2.822569 5.420249 4.422556
C -4.210533 5.399844 4.403723
C -4.880502 4.458691 3.633947
H -1.022656 4.515461 3.686212
H -2.300419 6.153966 5.022613
H -4.770201 6.117554 4.989127
H -5.962429 4.442714 3.619359
C -0.668611 2.657909 2.169724
C 0.049365 1.737138 1.418787
C -0.620623 0.795998 0.649010
H -0.146241 3.391527 2.769710
H 1.131291 1.753001 1.433517
