82

C 3.689626 -3.119334 -3.848560
C 5.014136 -3.119334 -3.848600
H 5.576476 -2.398114 -3.260600
H 3.127276 -3.840554 -4.436570
C 7.591569 -8.038004 -6.553870
C 6.676639 -8.477249 -5.606647
C 5.958711 -7.556385 -4.855777
C 6.155699 -6.196302 -5.052128
C 7.070625 -5.757067 -5.999360
C 7.788556 -6.677921 -6.750221
H 8.151110 -8.755836 -7.139244
H 6.522972 -9.537434 -5.453535
H 5.245563 -7.898776 -4.117386
C 7.267630 -4.396946 -6.195702
C 8.703461 -6.238689 -7.697432
C 8.900448 -4.878575 -7.893782
C 8.182535 -3.957714 -7.142912
C 8.379536 -2.597633 -7.339263
C 9.294461 -2.158397 -8.286495
C 10.012371 -3.079268 -9.037374
C 9.815370 -4.439349 -8.841023
H 7.820009 -1.879796 -6.753884
H 9.448138 -1.098214 -8.439608
H 10.725515 -2.736884 -9.775772
H 10.374901 -5.157171 -9.426421
C 6.549671 -3.476102 -5.444825
C 5.634751 -3.915336 -4.497613
C 5.437772 -5.275421 -4.301270
H 6.703171 -2.415869 -5.597765
C 4.777067 -5.262690 -2.157355
C 3.861945 -5.701798 -1.210254
C 2.816571 -6.533305 -1.588414
C 2.686321 -6.925707 -2.913646
C 3.601454 -6.486600 -3.860739
C 4.646818 -5.655092 -3.482587
H 5.591997 -4.614613 -1.862540
H 3.963405 -5.396011 -0.177177
H 2.103209 -6.875547 -0.850161
H 1.871377 -7.573777 -3.208442
H 3.499909 -6.792463 -4.893785
C 1.111823 1.799322 -1.143618
C 2.026755 2.238573 -2.090837
C 2.744784 1.317713 -2.841615
C 2.547882 -0.042372 -2.645189
C 1.632940 -0.481612 -1.697974
C 0.914921 0.439238 -0.947193
H 0.552047 2.517152 -0.558467
H 2.180292 3.298759 -2.244066
H 3.458005 1.660108 -3.579933
C 1.436048 -1.841735 -1.501532
C 0.000000 0.000000 0.000000
C -0.196901 -1.360115 0.196425
C 0.521127 -2.280973 -0.554339
C 0.324225 -3.641055 -0.357901
C -0.590716 -4.080297 0.589314
C -1.308754 -3.159429 1.340074
C -1.111852 -1.799347 1.143635
H 0.884009 -4.358890 -0.943038
H -0.744253 -5.140481 0.742554
H -2.021982 -3.501817 2.078389
H -1.671653 -1.081527 1.728778
C 2.154081 -2.762575 -2.252342
C 3.069003 -2.323336 -3.199550
C 3.265897 -0.963249 -3.395967
H 2.000710 -3.822810 -2.099285
C 3.926147 -0.976010 -5.540022
C 4.840881 -0.536654 -6.487383
C 5.886126 0.295153 -6.109522
C 6.016644 0.687590 -4.784327
C 5.101909 0.248221 -3.836972
C 4.056665 -0.583572 -4.214828
H 3.111442 -1.624493 -5.834565
H 4.739261 -0.842538 -7.520415
H 6.599128 0.637668 -6.847996
H 6.831352 1.336083 -4.489807
H 5.203634 0.554153 -2.803964
C 9.935099 -7.818239 -8.985212
C 9.324131 -7.034690 -8.346394
H 10.486774 -8.525755 -9.562034
C -1.231440 1.579541 1.287980
C -0.620570 0.795996 0.649063
H -1.783026 2.287053 1.864892
