136

C 0.702208 3.641021 -0.530207
C 1.404570 2.433131 -0.311175
C 2.817320 2.449964 -0.170972
C 3.529519 3.667014 -0.236269
C 2.834703 4.863017 -0.673738
C 1.422732 4.851375 -0.765666
C 0.722996 6.032349 -1.108650
C 1.460181 7.169379 -1.441822
C 2.839087 7.156216 -1.417829
C 3.521376 6.023127 -1.021548
H 0.964173 8.080670 -1.732764
H 3.388704 8.042180 -1.701290
H 4.599359 6.045368 -1.009989
C 4.864720 3.689467 0.150196
C 5.512617 2.554979 0.626061
C 4.834055 1.348549 0.574674
C 3.518287 1.253970 0.111193
H 5.390801 4.627123 0.137031
H 5.301999 0.456065 0.954419
C 0.706004 1.222146 -0.134380
C -0.703431 1.222707 -0.130164
C -1.403120 2.434842 -0.295743
C -0.702250 3.642526 -0.519550
C -3.525159 3.671149 -0.178667
C -2.814387 2.451945 -0.140426
C -1.423611 4.857093 -0.730716
C -2.832944 4.873920 -0.602290
C -3.520514 6.047117 -0.901857
C -2.841936 7.187227 -1.283532
C -1.464680 7.190465 -1.353737
C -0.726807 6.038517 -1.078659
H -4.597429 6.077150 -0.859269
H -3.393133 8.085891 -1.520094
H -0.970430 8.107384 -1.629327
C -3.514168 1.252441 0.129474
C -4.827980 1.339049 0.599416
C -5.505583 2.544721 0.673805
C -4.857939 3.687128 0.217298
H -5.294782 0.440141 0.965158
H -5.384255 4.624596 0.224753
C -0.703398 -1.226448 0.122246
C -1.426328 -0.001716 -0.002763
C 1.429606 -0.001752 -0.003216
C 0.706179 -1.226023 0.125984
C 1.404917 -2.437290 0.300789
C 2.818107 -2.453137 0.163637
C 3.519395 -1.255816 -0.112538
C 2.825224 -0.001251 -0.001323
C -2.821710 -0.001208 -0.000674
C -3.515346 -1.254205 -0.129386
C -2.814988 -2.454721 0.134758
C -1.403187 -2.438763 0.286330
C 0.702471 -3.645938 0.516017
C 3.531002 -3.669913 0.227297
C 2.835178 -4.868699 0.655531
C 1.423013 -4.857382 0.746372
C 0.723068 -6.040289 1.082280
C 1.459684 -7.180523 1.405576
C 2.838500 -7.168004 1.381135
C 3.521138 -6.031797 0.994797
H 0.963362 -8.094052 1.688635
H 3.387794 -8.056690 1.656502
H 4.599066 -6.054877 0.983675
C 4.868566 -3.689382 -0.151473
C 5.518246 -2.552786 -0.619573
C 4.837563 -1.347594 -0.569567
H 5.396032 -4.626163 -0.137997
H 5.306209 -0.453590 -0.944736
C -0.702146 -3.647262 0.505801
C -3.526419 -3.673568 0.172180
C -1.423685 -4.862292 0.714023
C -2.833394 -4.878084 0.589292
C -3.520782 -6.051994 0.886510
C -2.841942 -7.193720 1.262711
C -1.464554 -7.197840 1.329239
C -0.726759 -6.045461 1.055694
H -4.597792 -6.081452 0.846579
H -3.393023 -8.092801 1.497964
H -0.970265 -8.115793 1.601235
C -4.831531 -1.338685 -0.593031
C -5.510476 -2.543558 -0.667194
C -4.861010 -3.687670 -0.217828
H -5.299598 -0.438431 -0.953822
H -5.387744 -4.624872 -0.225896
C -7.854317 2.105918 0.044589
C -6.940636 2.588500 1.180354
H -7.593173 1.094693 -0.257153
H -8.893842 2.111524 0.365452
H -7.755458 2.754543 -0.823659
C -7.113150 1.678287 2.403994
H -6.385120 1.934424 3.170990
H -8.110774 1.802839 2.820277
H -6.992463 0.628389 2.151711
C -7.370682 4.002253 1.588104
H -8.352898 3.963906 2.054818
H -6.669886 4.428027 2.302802
H -7.445163 4.661649 0.726907
C 7.377678 4.029130 1.512015
C 6.947768 2.607754 1.131509
H 6.676667 4.468553 2.218185
H 8.359777 4.000015 1.979535
H 7.452045 4.671799 0.638311
C 7.118935 1.721767 2.373008
H 6.997826 0.667256 2.141489
H 8.116164 1.853938 2.787586
H 6.390508 1.993246 3.134126
C 7.862644 2.103041 0.006471
H 8.901911 2.116628 0.328092
H 7.603208 1.085473 -0.274458
H 7.763885 2.733495 -0.875037
C 7.136654 -1.712900 -2.352525
C 6.957345 -2.601563 -1.114142
H 7.007820 -0.659354 -2.120751
H 8.138856 -1.839469 -2.756896
H 6.417497 -1.987203 -3.121523
C 7.861966 -2.096792 0.019135
H 7.758959 -2.730265 0.898055
H 8.903646 -2.105485 -0.294724
H 7.596546 -1.081107 0.301327
C 7.393769 -4.021129 -1.493960
H 8.380290 -3.988802 -1.951864
H 7.461022 -4.665846 -0.621188
H 6.700518 -4.460176 -2.208023
C -7.385665 -3.997154 -1.567897
C -6.948405 -2.584056 -1.165793
H -7.454725 -4.655081 -0.705092
H -8.371648 -3.956696 -2.026419
H -6.692133 -4.425888 -2.287935
C -7.854423 -2.095959 -0.026207
H -7.589661 -1.084167 0.270554
H -8.895876 -2.100726 -0.340984
H -7.751736 -2.741961 0.843616
C -7.124364 -1.676031 -2.390539
H -8.125181 -1.796563 -2.800073
H -6.996719 -0.626277 -2.141799
H -6.402731 -1.937614 -3.161478
