152

C 4.598245 -0.491876 5.699022
C -3.453460 1.446774 -4.912819
C 1.118144 -0.412905 6.870961
C 7.397307 -0.478658 3.320876
C 1.168180 -0.158265 2.068961
C 5.304255 -0.456746 4.504242
C 0.462170 -0.193395 3.263741
C 1.143173 -0.285577 4.469975
C 2.555192 -0.215316 2.080393
C 4.623245 -0.364566 3.298042
H 3.105537 -0.187957 1.149038
C 2.530195 -0.342636 4.481402
C 2.505184 -0.469956 6.882392
C 0.437140 -0.320716 5.664761
H 3.036142 -0.541777 7.822590
H -0.644051 -0.276179 5.655894
C 6.716298 -0.386478 2.114678
C 5.329259 -0.329427 2.103252
C 6.691296 -0.513788 4.515658
C 3.236205 -0.307506 3.286622
H 4.798300 -0.257527 1.163060
H 7.222155 -0.585669 5.455908
H 8.478503 -0.523060 3.329746
C 6.642747 0.658812 0.141787
C 7.326564 -0.355982 1.081892
H 6.633596 1.653931 0.592738
H 7.167775 0.719566 -0.814732
H 5.608167 0.365783 -0.051920
C 8.775732 0.078975 1.385877
H 9.253782 -0.628505 2.067443
H 9.368679 0.127948 0.469283
H 8.789279 1.064442 1.857445
C 7.304068 -1.768967 0.461764
H 7.844421 -1.786844 -0.487884
H 7.769668 -2.491512 1.136152
H 6.276162 -2.091079 0.278828
C -0.487793 0.735698 7.915958
C 0.507884 -0.443154 7.903757
H -1.182612 0.659850 7.076211
H -1.067703 0.746856 8.842162
H 0.042754 1.687042 7.831043
C -0.244546 -1.788123 7.984925
H 0.458761 -2.623657 7.956049
H -0.822394 -1.856588 8.909875
H -0.931049 -1.894828 7.141698
C 1.513791 -0.314345 9.067007
H 0.999473 -0.330235 10.031039
H 2.231714 -1.137644 9.046503
H 2.071278 0.622176 8.989892
C -3.510786 -0.029377 3.230848
C -2.853413 -1.065031 2.580813
C -1.466401 -1.122306 2.592337
C -0.736771 -0.143954 3.253890
C -1.394154 0.891691 3.903931
C -2.781157 0.948975 3.892401
H -3.422073 -1.827750 2.065125
H -0.953981 -1.929567 2.085595
H -0.825396 1.654348 4.419602
H -3.293614 1.756212 4.399147
C 5.766335 -0.650245 7.768025
C 5.186889 -0.571685 6.741676
H 6.289543 -0.721182 8.694776
C -5.144324 1.103338 2.211607
C -4.709727 0.020049 3.220975
H -4.778143 0.864020 1.210437
H -6.233450 1.182769 2.169520
H -4.739312 2.077433 2.495948
C -5.250064 -1.362195 2.797750
H -4.925845 -2.132755 3.501108
H -6.342410 -1.361452 2.767642
H -4.878757 -1.631756 1.806199
C -5.193440 0.378668 4.641892
H -6.283774 0.441642 4.678498
H -4.868216 -0.377514 5.360274
H -4.782517 1.341356 4.955237
C 0.000000 0.000000 0.000000
C 0.579490 -0.078509 1.026327
C 3.211205 -0.434826 5.687612
C -2.631945 0.356343 -4.661153
C -1.950862 0.264142 -3.454984
C -2.091281 1.262354 -2.500501
C -2.912792 2.352787 -2.752181
C -3.593879 2.444987 -3.958336
C -0.448270 -0.918456 -1.997116
C -1.129361 -0.826274 -3.203301
C -1.410193 1.170158 -1.294315
C -0.588689 0.079756 -1.042633
H -1.519631 1.948295 -0.550288
C -1.669998 -1.732303 -5.363948
C -2.491519 -0.641879 -5.615634
C -0.988922 -1.824503 -4.157790
H -3.022510 -0.569926 -6.555803
H -0.348611 -2.674533 -3.961610
C -3.874736 4.441427 -2.049367
C -3.053218 3.351001 -1.797685
C -4.415403 3.535412 -4.210004
C -4.555822 4.533627 -3.255520
H -2.522286 3.279007 -0.857485
H -4.946302 3.607298 -5.150232
H -5.196237 5.383592 -3.451642
C -4.064583 4.641147 0.167481
C -3.996199 5.304217 -1.224236
H -4.913529 3.955789 0.224721
H -4.176089 5.393014 0.952679
H -3.154653 4.069670 0.365437
C -5.297641 6.079467 -1.519055
H -5.257862 6.532391 -2.512467
H -5.453413 6.873654 -0.784799
H -6.159143 5.408242 -1.487815
C -2.774215 6.242091 -1.317703
H -2.839203 7.042508 -0.576594
H -2.713680 6.695853 -2.309717
H -1.849932 5.686086 -1.143431
C -1.802193 -3.957513 -5.509922
C -1.548724 -2.595216 -6.188977
H -1.088037 -4.121050 -4.699404
H -1.701375 -4.775682 -6.227355
H -2.808658 -3.993799 -5.086299
C -0.113835 -2.530338 -6.753394
H 0.072779 -1.558619 -7.216565
H 0.044658 -3.306438 -7.506174
H 0.618820 -2.670609 -5.955117
C -2.582410 -2.347224 -7.307720
H -2.512609 -3.116364 -8.080821
H -2.416136 -1.373728 -7.774959
H -3.596787 -2.358445 -6.901856
C 1.904440 -4.042047 -1.275797
C 2.435002 -2.759173 -1.277580
C 1.613638 -1.668695 -1.529444
C 0.261741 -1.861081 -1.779532
C -0.268810 -3.143961 -1.777756
C 0.552543 -4.234433 -1.525885
H 3.488824 -2.609091 -1.082687
H 2.027201 -0.668696 -1.530785
H -1.322643 -3.293929 -1.972679
H 0.139020 -5.234450 -1.524553
C -4.621515 1.605012 -6.981852
C -4.042088 1.526514 -5.955488
H -5.144710 1.675887 -7.908615
C 2.359811 -5.463107 0.386600
C 2.614468 -4.984655 -1.058200
H 2.579828 -4.664976 1.099539
H 2.988348 -6.323607 0.628995
H 1.314521 -5.753542 0.516068
C 4.081758 -4.538282 -1.229938
H 4.257500 -4.180567 -2.247162
H 4.766977 -5.366484 -1.033255
H 4.318255 -3.724830 -0.539959
C 2.265919 -6.099264 -2.067036
H 2.886020 -6.983589 -1.900970
H 2.426387 -5.753946 -3.091077
H 1.217509 -6.390911 -1.969114
