11

C 0.000000 0.000000 0.000000
F -1.016935 -0.752462 0.356346
F -0.445577 1.099843 -0.564930
F 0.709404 0.309492 1.062215
C 0.687624 -0.599753 -0.779404
F 1.702742 0.216611 -1.103422
F 1.223092 -1.629521 -0.104834
S -0.278733 -1.166272 -2.286919
O -1.292596 -2.012359 -1.698438
O 0.734654 -1.847562 -3.061286
O -0.748524 0.085679 -2.837071
