20

C    -3.49568   0.85609   -0.1231
C    -2.70585   -0.25151   0.03828
S    -2.53586   2.2998   -0.27882
C    -1.31336   0.05401   0.0383
H    -3.08758   -1.26059   0.15497
C    -1.05978   1.39053   -0.12306
H    -0.54424   -0.70257   0.15502
C    0.07175879024209886   2.028676063533083   -0.17194320544601846
C    1.2247654512151875   1.7308752091947686   -0.8491012255617516
S    0.23526007818406233   3.5044488593930243   0.7364420095046933
C    2.2557886718113975   2.6932494382244516   -0.6412603422135992
H    1.3526491048165428   0.8575133992339514   -1.4803394654074808
C    1.8753463941850101   3.7121604879884638   0.19163192120541309
H    3.235787738363061   2.6152506880969546   -1.1007170362952248
C    2.5402943002585663   4.7508557771036095   0.602674958585193
H    2.1422261522809136   5.7470347551593886   0.444145254285381
H    3.493179066131888   4.621099381369488   1.1038028548678045
C    -4.790442266445407   0.9618975485116259   -0.17204319224482872
H    -5.40228260318092   0.07616523473313308   -0.30278012112099334
H    -5.258598578492715   1.9359386186755105   -0.08243890203360486
