14

C 0.000000 0.000000 0.000000
F -0.445577 1.099843 -0.564930
F 0.709404 0.309492 1.062215
C 0.687624 -0.599753 -0.779404
F 0.172765 -1.790130 -0.992147
F 0.744119 0.062177 -1.913422
C 1.793755 -0.717004 -0.329152
F 2.311582 0.474938 -0.115196
F 1.699387 -1.375717 0.823961
S 2.822039 -1.733184 -1.519021
O 1.943663 -3.051355 -1.546078
O 4.062176 -2.002392 -0.896553
O 2.769283 -1.102147 -2.782702
H 1.143549 -3.099915 -1.020803
