20

C 0.000000 0.000000 0.000000
F -1.016935 -0.752462 0.356346
F -0.445577 1.099843 -0.564930
F 0.709404 0.309492 1.062215
C 0.687624 -0.599753 -0.779404
F 1.133200 -1.699595 -0.214471
C 0.039905 -0.882333 -1.749254
F -0.977029 -1.634795 -1.392907
F -0.405671 0.217510 -2.314184
C 0.727529 -1.482086 -2.528658
F 1.744464 -0.729624 -2.885005
F 1.173106 -2.581928 -1.963725
C 0.079811 -1.764666 -3.498508
F -0.939942 -2.518823 -3.143544
F -0.368820 -0.632344 -4.036145
S 1.194542 -2.617647 -4.737691
O 2.271252 -1.472464 -4.935441
O 0.459667 -2.789133 -5.932861
O 1.791834 -3.723633 -4.091227
H 2.182751 -0.648845 -4.453494
