26

C 0.000000 0.000000 0.000000
F -1.016935 -0.752462 0.356346
F -0.445577 1.099843 -0.564930
F 0.709404 0.309492 1.062215
C 0.687624 -0.599753 -0.779404
F 1.704559 0.152709 -1.135751
F 1.133200 -1.699595 -0.214471
C 0.039905 -0.882333 -1.749254
F -0.405671 0.217510 -2.314184
C 0.727529 -1.482086 -2.528658
F 1.744464 -0.729624 -2.885005
F 1.173106 -2.581928 -1.963725
C 0.079811 -1.764666 -3.498508
F -0.937124 -2.517128 -3.142161
F -0.365766 -0.664823 -4.063438
C 0.767435 -2.364419 -4.277911
F 1.784370 -1.611957 -4.634258
F 1.213011 -3.464261 -3.712979
C 0.119716 -2.646999 -5.247761
F -0.900036 -3.401156 -4.892798
F -0.328915 -1.514677 -5.785399
S 1.234447 -3.499979 -6.486945
O 2.311158 -2.354797 -6.684694
O 0.499573 -3.671466 -7.682114
O 1.831740 -4.605966 -5.840481
H 2.222657 -1.531178 -6.202748
