20

C 0.000000 0.000000 0.000000
F -0.445577 1.099843 -0.564930
F 0.709404 0.309492 1.062215
C 0.687624 -0.599753 -0.779404
F 0.172765 -1.790130 -0.992147
F 0.744119 0.062177 -1.913422
C 1.793755 -0.717004 -0.329152
F 2.308614 0.473373 -0.116409
F 1.737257 -1.378933 0.804866
C 2.481379 -1.316757 -1.108556
F 1.966520 -2.507135 -1.321299
F 2.537874 -0.654827 -2.242574
C 3.587510 -1.434009 -0.658305
F 4.105336 -0.242067 -0.444349
F 3.493142 -2.092721 0.494808
S 4.615794 -2.450188 -1.848173
O 3.737417 -3.768360 -1.875230
O 5.855931 -2.719396 -1.225705
O 4.563038 -1.819151 -3.111854
H 2.937304 -3.816920 -1.349955
