43

C    0.68103   -0.09218   1.2062
C    -0.70601   -0.03513   1.19479
C    -1.38702   0.05706   -0.01142
C    -0.68101   0.09219   -1.2062
C    0.70603   0.03513   -1.19478
C    1.38704   -0.05705   0.01142
C    -0.6614020047020894   -0.6740001239413017   -1.2395510152509386
C    -1.782028839825952   -2.377433032458554   -3.389527645364195
C    -1.2296226306594418   -1.3956889960539558   -2.317059317551971
H    -2.2750372029946053   -3.4902042755196487   -4.367773333311222
C    2.7032485364596255   0.007848808046423288   -2.2161890487949356
C    3.409284773567637   0.042780354106996175   -3.410993414028081
C    2.728300569062646   0.13519658712132154   -4.617200665453036
C    1.3413082052429237   0.19269017219934367   -4.6286092490924355
C    0.6352811470694638   0.15776738094822565   -3.4337986308876527
C    1.3162561726403073   0.06534239310864845   -2.227597632435021
H    3.234099690410239   -0.06408265672323522   -1.2759480429749421
H    4.490472490689963   -0.0019878181807293505   -3.4022153678999314
H    3.278652080627262   0.16237566728077046   -5.548547748940298
C    -3.455067587107474   0.20540388583195615   -1.2291268460772555
C    -2.7740558823866253   0.11378779382007044   -0.022864571130642997
C    -1.36202725565323   0.18368254024992048   -2.4124628124132736
C    -2.7291214787125853   -0.5257616352327601   -2.4572178777043794
H    -4.536271211085215   0.24998200321727207   -1.2380126353256624
C    -3.848889050568349   -2.2298280884580017   -4.607140154314633
C    -3.296971297587126   -1.247771024302653   -3.5347069378443536
H    -4.341353403107144   -3.342879910970585   -5.585340651863518
C    0.6603509585399009   0.2847734590228702   -5.834777569756897
C    -0.7266668548475755   0.3416377923047279   -5.846245714603994
C    -1.4327264530716857   0.3064649812979546   -4.651461659337846
C    -0.7517585133440724   0.21441922883917547   -3.445227661718019
H    1.2107278543517483   0.31214743159239344   -6.766103944763144
H    -1.2574941843312049   0.41326386776090096   -6.786525541085466
H    -2.513913911552716   0.35004707019961073   -4.6604320702757
C    -3.4800440356917295   0.07868036938751763   1.1719669973821434
C    -2.7990299128569505   -0.013649355686898745   2.378173494052163
C    -2.754274486271683   -0.6520581372461275   -0.056482492628719516
H    -4.561238383959381   0.12349094567998131   1.1631218953921114
H    -3.3492639116672818   -0.04128997641759238   3.3095855558146168
C    -3.874440627467435   -2.354872277261017   -2.2071892388255128
C    -3.322296183132107   -1.3734385110524774   -1.134302216703701
H    -4.367157628660736   -3.4673578541339367   -3.185906516444404
H    -2.538921787312634   0.22474586839533145   -2.259286595258783
