46

C    -0.5308299999999999   0.07196999999999999   -0.9402500000000003
C    -1.91787   0.12902   -0.9516600000000002
C    -2.59888   0.22121   -2.1578700000000004
C    -1.8928699999999998   0.25634   -3.35265
C    -0.5058299999999999   0.19927999999999998   -3.3412300000000004
C    0.1751800000000001   0.1071   -2.13503
H    0.0   0.0   0.0
H    -2.46832   0.1016   -0.02037000000000022
H    -3.6800699999999997   0.26573   -2.16676
H    -2.42372   0.32832   -4.29289
C    1.5622021521884701   0.9855367347777038   -2.1236254710432934
C    2.2681930062145597   0.9711285378779466   -3.3184167274000957
C    1.587160807347949   0.6810253439581965   -4.524634835022804
C    0.20014766646172322   0.30055121006271246   -4.536044614075687
I    -0.6338523843764269   0.5048659910848434   -6.013094894095509
C    2.7387611809587433   1.8247342585756066   -7.624681282770881
C    2.0328073331340404   1.732477653537745   -6.429832299610558
C    2.197423354795035   0.769180013818243   -5.557426732287072
C    3.067981690600411   -0.11000848615835013   -5.879853758801258
C    3.773938304896949   -0.061640899659346826   -7.074701275615839
C    3.6093195167641188   0.9125077770907659   -7.947108309285065
H    2.610510391419923   2.5970955242763534   -8.304664843538228
H    1.3541974786498645   2.402539192683644   -6.178374163083232
H    3.196210758748517   -0.8401551813144439   -5.199859338738528
H    4.452535282292834   -0.7849429958705652   -7.326052162883435
C    3.2196163678821526   0.5915805110147279   -10.141939587714074
C    4.2195772264632305   0.9618800486597525   -8.979901615092015
H    2.474756750197189   1.2900376126289825   -10.131573633779052
H    3.7340494734873912   0.6385702149042215   -11.105866380977185
H    2.6936185960609818   -0.4298259714985029   -10.054533115940439
C    4.9343131344622355   2.4109941606029075   -9.082603170441775
H    5.627713735402295   2.690502984650209   -8.24897761890545
H    5.498875662825591   2.4927341268112935   -10.015197546910008
H    4.208674519453476   3.136057846375113   -9.052889544567307
C    5.2477148452808215   -0.05791601057102813   -8.971366377750988
H    5.824017786227308   -0.06942404657125623   -9.89968683178518
H    5.943277545491652   0.20105895192672774   -8.136448521772765
H    4.74385626267142   -1.076338516986397   -8.863483206965295
C    3.655203726326701   1.2450598903321994   -3.3070069682608643
C    4.3362409841549665   1.5290525496856948   -2.100791608381496
C    3.6302403705394344   1.7475369435019017   -0.9059921595858853
C    2.243229650427292   1.6301729583820042   -0.9174019187251168
H    4.205546306833288   1.1980576251354809   -4.238355268475534
H    5.417437062934234   1.588211375510477   -2.0917823573026606
H    4.161109365696847   1.9590460081290122   0.03424976625680465
H    1.6929058396407786   2.0606556815632686   0.013959790309745479
