136

C    -3.645405605113285   1.3029395663789811   0.26861583802451905
C    -2.791970367705881   -2.2464936991195597   -0.5436881485724511
C    -3.3002179022736344   -3.3678015425955583   -1.244041559087084
H    0.4589475944028604   -3.283156714271882   -0.4802583360573589
C    -2.505639520831146   -4.430831828231361   -1.5931454265372174
H    -4.33299525406882   -3.371476351718214   -1.5630508722833425
C    -1.1285032435284037   -4.460696296905349   -1.2861740056375177
H    -4.564283278039928   6.405669075065815   2.2395818720536163
C    -0.6021680480132103   -3.340694414518604   -0.6801585028431207
H    -8.638799348647888   -3.717936133503428   -0.5638834979368288
C    -1.3892673431041858   -2.223846298917543   -0.3204332617710386
H    -7.291976887838027   -4.436580133270333   0.3269319175694798
C    -5.74323459629699   5.095924663179131   0.11393672910982677
C    -5.01543103036934   1.3721161965841613   0.12202678368885544
C    -5.7382101754671995   0.14264061219208882   0.024555809980964516
C    -7.168699164333335   0.14870220824696756   0.07450489507975389
C    -5.046660345037195   -1.1003411752641379   -0.05717800028870612
C    -5.804699696913887   -2.288674335528072   0.06582606842344774
C    -3.6037890563145742   -1.1062188959802999   -0.15924816468704894
H    -3.9974352361199137   3.8820523150083304   0.05495205027716854
C    -2.932836871035447   0.09169247251883204   0.14384468749783672
C    -1.5165536880390196   0.09018779311004396   0.34297152018871396
H    -5.225493826274209   8.543196772640194   0.1254379443700997
C    -7.148583063768374   5.066153052107517   0.1438446874978363
C    -7.833798475635875   3.8727363591063253   0.1488717739521459
H    -5.289428804765191   -3.234393754313539   0.160491767853141
C    -7.157880158875141   2.6362616275898016   0.132614379532157
H    -3.2918442471830387   5.613355029615836   1.3058173972750449
C    -5.741622433460582   2.6418782255143163   0.12349357126011329
C    0.6973707934740688   -0.9618656794175973   0.5018951124256061
C    -5.079233274020843   3.8765374210586696   0.10111769709750917
H    -3.067254901353814   2.196408430214238   0.47189992289590854
C    -7.870630698762408   1.3922806754593884   0.12532781980066066
C    -7.861653414850268   -1.0692057149129668   0.10765164943954253
C    -3.9974707359819512   6.447932631685948   1.3050808194542725
C    -9.286559354502373   1.3998147691516063   0.1677036226340864
C    -7.188517427967398   -2.2864276761065443   0.14384468749783674
H    -8.945131102453987   -1.0484068739350585   0.15286395882060477
H    -11.559722644535885   1.420007643726535   0.23728773695582855
C    -7.959500514473054   -3.5733814001447324   0.2820995704227789
H    0.27028493873936493   -5.870773510332832   5.6808716810369875
C    0.9497631553487526   -5.202085481922946   5.145183651713985
H    1.4212169215213737   -4.546554555861325   5.883236097603065
H    -1.5991837449137412   -4.326140511955916   5.362300900349659
C    -0.9548947387956663   -3.6339327066811924   4.811023625952115
C    -0.45718501306724785   -5.403687070190286   3.0995565809963814
H    -1.584358738997937   -3.0843455055016733   4.1072362249953915
H    -0.5417924106721084   -2.9139459606175793   5.523278427321513
H    1.727995795436743   -5.8219546746061654   4.690925560333543
H    -3.41590465310138   7.37526239066415   1.3011580221194698
H    6.1934385376076415   -0.2160047776288403   5.341853615494964
H    7.556429238993078   0.8651156085860796   5.018793507195241
H    7.712252723845074   -0.8642880175959442   4.7179259862238
C    -0.2870432191277689   -5.682756786129779   -1.6623659585283856
C    -0.33299337114348015   -5.890007944084884   -3.1868824826669138
H    -1.3515071182182243   -6.0585243009683065   -3.5461826989615064
H    0.06653157418504446   -5.0175743096837895   -3.7116166228230725
C    1.1786559345957972   -5.529210350915479   -1.240637719121806
H    0.26702104459016973   -6.760881271603321   -3.469395241405925
H    1.6625979204748034   -4.6901338173198965   -1.7487028782028233
C    -0.8628293758436624   -6.926820866499179   -0.9611293182270977
H    1.2773051683477439   -5.376596305896378   -0.16207361986441549
H    1.732446851812913   -6.435635231361196   -1.500906622898367
H    -6.512904900701851   7.688763329093022   -0.7263092160023521
H    -0.2833394729344775   -7.815862224195021   -1.2294734553857753
H    -0.8274816853220368   -6.813386737211183   0.12629859564133206
H    -1.9023261058013499   -7.109807026514098   -1.2451301384183955
C    -4.939158753725789   6.401325137003914   0.08765316413023205
C    -4.106155506851481   6.464327596852691   -1.2054500701365698
H    -3.4115399162651787   5.624204912710556   -1.2828119720262918
H    -4.752312812985524   6.444466793056329   -2.0876504707913175
C    -5.841828952046277   7.639762903370025   0.1359445897407996
H    -3.5183663748266567   7.387440065983154   -1.2344484868131629
H    -6.4490947518770065   7.664848045556269   1.0453797796054913
H    -2.95451784296235   -5.2548536030122   -2.1384849334053406
C    -10.494793407936664   1.4108418927574187   0.20426957807446855
C    10.134391781149315   2.4519504432877843   0.716361871952454
H    9.012156052227711   2.9934375314343207   -1.921154395242563
H    4.020115912004432   4.233094462705019   -6.037222983471729
C    3.682665843644444   0.7627326135479071   -0.8784671964432981
C    2.671350571317558   -1.5437961669594022   1.8892632154029143
C    3.225892550475011   -2.4562871488531024   2.8132370366992543
H    1.0933483295652453   0.2802091081276239   -1.1635481331595547
C    2.453810804720183   -3.3633105109308734   3.5030511248317096
H    4.2976826277837095   -2.486146942502459   2.9513660076980894
C    1.0598909151813183   -3.4238949751135728   3.3272485860768626
H    7.017090103048148   4.6750012942821275   -5.699887483516419
C    0.5138187614735912   -2.5867308770356168   2.372139886682654
H    2.948423513479707   -4.045069718142881   4.18402141771471
C    1.2843549495565578   -1.6891740352664875   1.6080715332800697
H    -7.714596328330579   5.989351152747084   0.15660953192344995
C    6.213275056296329   2.7005528571882   -3.8345511624649484
C    5.018415290888839   1.0229830548763976   -0.6427188404244877
C    5.556966397611469   0.6415873755967058   0.6257402782872257
C    6.878036737088541   1.0481848364423239   0.9972825755963711
C    4.766512076041887   -0.09091599356788826   1.5578303707389898
C    5.263310269374479   -0.24150884522851035   2.873424449654131
C    3.45585109984589   -0.5580823904170358   1.167405076045912
H    -0.5484954323439358   -2.636232258742918   2.1668738776667373
C    2.8933279217917907   -0.0035193508760905864   0.005244965501807336
C    1.5068808238078129   -0.20991446154105392   -0.287087431109838
H    3.6493107857787295   3.532273255002113   -4.457496687084523
C    7.5227527368288385   3.039423095017689   -3.4505875218949087
C    7.998285317644493   2.728146766126806   -2.1979032571156205
H    8.18052148550088   3.550016372420546   -4.1428223521135745
C    7.195169345420179   2.063177801031287   -1.2502598044859305
H    7.555850446204205   3.092088291477334   -6.289193033936515
C    5.869411063718988   1.7164889658418825   -1.6110659219192371
H    -8.917633367360779   3.8702791215812042   0.16360649760639123
C    5.423663752028014   2.0425535682024076   -2.90026755173969
H    8.341992492075471   1.1104697853910264   2.562626302082509
C    7.693526081593339   1.7448849213758633   0.05558570402329299
C    7.342545970185683   0.785888459582881   2.2946742010145718
C    6.678993085984025   3.7236545302561392   -6.120174146325014
C    9.010090995702942   2.127668643812195   0.41321878331290174
C    6.5302367053656   0.18011957507139686   3.246683653652222
H    3.199671614818052   1.1333162165506971   -1.7748555699611501
H    4.615251485337343   -0.6488889953654848   3.6368051976131337
C    7.021162155682134   -0.016710793614943764   4.657128972220968
C    5.1882452548341575   1.7440595976411375   -5.921089701658766
C    5.645585184700032   3.035250364308788   -5.219769469269339
H    4.777216366540835   1.9750999612030866   -6.90901216171405
C    4.442861970166992   3.983101424905976   -5.058865684255986
H    6.0256389399853845   1.0533042181637167   -6.054303405964212
H    4.419254225445978   1.7578192909468804   -3.188123596294245
H    -1.1102850952772298   -6.108520122157843   3.62439611329541
H    4.413554268206158   1.2230795841463091   -5.35320666778819
C    -0.7622172741039281   -1.0300288215584277   0.2023832683723308
H    6.23133393466858   3.9352574248196346   -7.095234407134511
H    -1.051909502844204   -4.896777167129262   2.3354789835974765
H    4.743559338233214   4.914171603963139   -4.569984636602888
H    0.3215635886903883   -5.979184346144319   2.589444181040959
C    0.16626290869625088   -4.406175071700156   4.09366366004015
H    -8.570362401567394   -3.5725447747295993   1.1898447121273676
H    -1.0466943556946877   1.01530237924598   0.6632440391956843
H    11.125429489082988   2.7377858407242344   0.9835540083686165
