134

C    -1.4881669284313845   2.513039100597526   0.12301193570283558
C    -3.2433350213054566   -0.8502580305975098   0.09459393829993157
C    -3.839249787200594   -1.4673822175667173   -1.0036148854998204
H    -4.154400692730388   -0.862468660452628   -1.8482272161988798
C    -4.029381249535168   -2.845171422363898   -1.039024603079784
H    -4.492142817647681   -3.276855731452672   -1.9181072321650512
C    -3.634711344601909   -3.66202047104126   0.019935598924469167
H    0.9775361274671128   7.55831451491179   -1.75908704556132
C    -3.038649725242621   -3.034085901190764   1.1201414894635868
H    -2.7207077074143204   -3.6269439157881966   1.9724311412395676
C    -2.8439392907177696   -1.6618187541727993   1.15943373687
H    -2.3787561387562897   -1.2078893260720942   2.028616114569424
C    -0.7588757165788267   6.784010175820922   0.24983830152443498
C    -2.5291218420652815   3.433804885899894   0.11942717679725662
C    -3.86047051267861   2.9397984097421306   0.09765238041839461
C    -4.973713257488172   3.8409636239328924   0.04954568089695857
C    -4.107680269971419   1.5353714000138752   0.11939118094365159
C    -5.452884479257517   1.0782368601154109   0.1532460518362853
C    -3.017739456047185   0.6205312839526714   0.1217247745473927
H    -0.4569934007388393   2.83920478153649   0.10317673146374351
C    -1.715913633582785   1.127914889160805   0.12111254432032674
C    -0.5715394471710677   0.26895428842313823   0.07893799456610025
H    1.5540804968087123   5.714324062843307   1.4807941656357877
C    -1.871391171366673   7.643642815698728   0.12111254432032803
C    -3.146075069891482   7.149367843852069   0.023773876443934805
H    -3.9889449552754197   7.825675949822718   -0.060196617656324225
C    -3.396957919700875   5.758698829168092   0.04285001777806485
H    0.264104576716237   9.003493504123288   -1.035016799213247
C    -2.295118517702334   4.876580533290802   0.1321682009448758
H    -8.488073233448505   1.7323593899322387   -0.746065366294752
C    -1.0019521175485524   5.422239471516715   0.24510966894154707
H    -0.16628445252674817   4.745547444899947   0.3488989039392094
C    -4.733802099707755   5.244073140831473   -0.005672222686211648
C    -6.277281415728334   3.322894415662625   0.05441327075592395
C    0.9812955668264907   8.19541425276893   -0.8698740628635233
C    -5.827138854790893   6.14333747337764   -0.08909823847631759
C    -6.5245466094127185   1.9495328866151447   0.12111254432032614
H    -5.636756256744616   0.012431848777484239   0.21022105575537198
H    -7.109417183907685   4.01774113554551   0.016610394697001013
C    -7.941939474943513   1.4407847179599291   0.15654250014923
H    1.4334703204184724   5.753238079321701   -4.363686085231029
C    1.4244246475023603   4.820717925757774   -3.790124489069492
H    1.0497223822386859   5.042111830258317   -2.786304810548586
H    4.820374988556637   4.896650986689597   -3.1044903507179327
C    3.787800273378991   5.256513338268296   -3.134741670849579
C    3.3118277205622686   3.9050105489307203   -5.168326986481888
H    3.4944812481547447   5.5408438888868945   -2.120053512954747
H    3.772826325559514   6.161924486740428   -3.7478273525158166
H    0.7101286088311329   4.145101452680501   -4.266849755015088
H    1.9750542447364294   8.645424658926924   -0.7779390863123616
H    7.1561361054416475   -0.9502031370069863   -3.0060044488081403
H    7.4129323016890805   -2.6724544259768974   -3.3115167992490635
H    8.192485393701775   -1.900641299135805   -1.933923543152113
C    -3.825758304361295   -5.183168972264766   0.015115341722951259
C    -2.451468199143865   -5.870218487557529   0.11060237560175223
H    -2.569254771268877   -6.958676837321717   0.11976414737819874
H    -1.8210551883275883   -5.603102672526106   -0.7420469484524355
C    -4.690409911387921   -5.595882814024233   1.2201156392238943
H    -1.9164485959310311   -5.584537138166014   1.0198946539448688
H    -4.8367659599901955   -6.680611814552727   1.2294331250809447
C    -4.516944283111271   -5.676991961995085   -1.2613304735330244
H    -4.226904728602191   -5.3154208768429445   2.1692468177149307
H    -5.674501354161849   -5.1202033751874785   1.175969229015301
H    1.7686288022685999   5.6222243982031355   -0.2752031350607378
H    -3.930465464954827   -5.4467649218468495   -2.1553985262063464
H    -4.637306861657125   -6.763129809876089   -1.2169551986503904
H    -5.512007029826422   -5.238874157934027   -1.3814184536581853
C    0.644267734200292   7.381278398376591   0.39274169140761206
C    0.6822434315009384   8.308763017652346   1.6216914741927597
H    -0.029489166147354973   9.133069573700393   1.5334667247434028
H    0.4428636850816482   7.75668652768047   2.535046256093923
C    1.721816500582385   6.306805189142655   0.5767392080155251
H    1.6802038534424149   8.743249775617102   1.7375413044179266
H    2.7016793189671446   6.783573615491104   0.6714352100897862
H    -7.579115276270901   7.586708719270586   -0.22363244111279157
C    -6.757994917459186   6.910652499772325   -0.16049445449645028
C    7.007365052135226   -6.6508951612903875   0.47073348349048
H    7.838089700708395   -7.3154218806147515   0.41072999675973865
H    0.3397996592932757   -6.7287951826370715   6.291517695620234
C    1.606379360947482   -2.410826386510443   0.7071808259977215
C    2.747363619228823   0.4564836371986951   -1.5046211641467133
C    1.9407615115073142   0.6595981666293892   -2.6267443124099827
H    1.2824821372435817   -0.1358377141938879   -2.9610106263844873
C    1.9775593911626748   1.860305870005663   -3.3190673131806117
H    1.3435054061755318   1.9741760681138234   -4.192601442845953
C    2.8108535716180354   2.9134307718785157   -2.9239190453331023
H    -1.0157269991121   -5.122963405562406   3.230992170532696
C    3.600265331021507   2.7085691864394312   -1.792140096338045
H    4.258564292183194   3.491879020828846   -1.4359156993954785
C    3.5721728619215147   1.5030578505691155   -1.0972169707732145
H    4.202954571392778   1.3738945448391182   -0.22297720703801338
C    1.6878800897302026   -5.963798217596699   3.193581461810287
C    2.705404053849238   -3.2618832348121085   0.7361318480734352
C    3.8361904091818637   -2.9233599324726343   -0.0538281576561187
C    4.969470351647703   -3.7977594274288164   -0.12335995886196394
C    3.8529520238613837   -1.710046053585225   -0.8021942349440745
C    4.99092674487069   -1.411120396845895   -1.5989167236786408
C    2.7315093103583994   -0.836046637450547   -0.7655418239566097
H    0.7043839691975727   -2.649400667667075   1.2547512247250923
C    1.6080739521085916   -1.2143839239790024   -0.027576758386682297
H    -7.972216244260555   0.3518076239022634   0.23126274030878502
H    1.8951618858847603   -7.251892852571289   5.639253001476554
C    2.79764837546573   -6.827377998120718   3.068759721656339
C    3.8416952227358383   -6.52863063922966   2.23249189159842
H    4.691353680909561   -7.19770122815819   2.1597399419030223
C    3.846272076562145   -5.346385134723907   1.4583574180537882
H    -1.3176065074840233   -5.555584354168188   4.91428936080545
C    2.730333756883141   -4.481109879574134   1.5423950175693033
H    -1.7251561996002795   8.718726735535405   0.10886007568677192
C    1.6827109807171396   -4.8163549293423555   2.4212667617255983
H    0.8473261953164233   -4.136633295817245   2.5069945618047207
C    4.958314826532724   -5.0143500748555505   0.6171890409257392
C    6.063250384714391   -3.442206490279323   -0.9266787261703505
C    -0.5396867218001897   -5.2542264547855675   4.207248070430788
C    6.064636866350453   -5.897842205047163   0.5375992102997671
C    6.081331975269446   -2.2567379837996695   -1.6656715582380912
H    4.99151755749044   -0.49563765282021943   -2.177797196939814
H    6.911882751109064   -4.11642308918043   -0.971465221855502
C    7.27229266309326   -1.9237769129452347   -2.5255543697642953
C    -0.07906047310069986   -7.654734331078843   3.732096143808743
C    0.5592976014608735   -6.322227654114663   4.164796322567998
H    0.6505844120552735   -8.468212792637162   3.716102255442794
C    1.1349535944526719   -6.468881891361637   5.585562314439723
H    -0.8776793483252979   -7.936982612337403   4.425575405773298
H    2.8381915367882278   -7.742916548639998   3.6497677899447876
H    4.316820942724061   3.4731102254250237   -5.163225582862146
H    -0.5109232468801872   -7.573483563638037   2.73033722220034
C    0.43905117239197095   -0.3898905707463626   0.018962715273766344
H    -0.15225980975852826   -4.2846445008954275   4.533508045009766
H    2.6467929275277577   3.1978398431660944   -5.670289205771811
H    1.5941747484090598   -5.533726230208298   5.918691085206187
H    3.3380970824336105   4.821209600441799   -5.766907411915955
C    2.837994139574913   4.213662376071532   -3.736073531908678
H    -8.487575993751047   1.853129967070217   1.010908911646074
