136

C    2.0084750143759518   -1.7533643661697182   -0.232015182902492
C    2.960780958144611   1.9137516033131972   -0.2760857451930607
C    3.142734009258558   2.629512886043983   -1.4573789423428307
H    3.3759561179926325   2.094437457356171   -2.3730441429219704
C    3.0212388576020226   4.016418931014603   -1.483570040234472
H    3.165703375392931   4.52741374990234   -2.427869827385298
C    2.7187514032221447   4.741951203733419   -0.3310854265913816
H    0.1299391176067674   -8.541664165024601   0.8845456823452107
C    2.546494878161474   4.01548705100377   0.8527343725612004
H    2.3122937909363284   4.53658038868992   1.7756474908709794
C    2.6627149776810994   2.634096703021069   0.8833404104982878
H    2.514963780988484   2.1003709491127243   1.8170826126800161
C    2.2764999874109626   -6.084109525113034   -0.2792569454611473
C    3.2313464724371093   -2.4127022472468997   -0.2297918312221593
C    4.415864727981646   -1.629533291939669   -0.2261699799502592
C    5.707395732465504   -2.2478689240204757   -0.20057620744117016
C    4.328411619058305   -0.2084714719297753   -0.2502043560521719
C    5.528241637102472   0.5522731713668235   -0.24832613518678837
C    3.054203074042696   0.42430804650904863   -0.2551553756133828
H    1.0929777036693926   -2.327623716303386   -0.26013620852216296
C    1.8946636858725463   -0.35417580354923944   -0.2260209409770422
C    0.5695233385606787   0.2873011879417489   -0.2071715114894145
H    2.010561298742412   -8.50693799973817   -1.5910635514096225
C    3.562352772024784   -6.663927341970906   -0.2260209409770435
C    4.691575800054643   -5.887958246442835   -0.18444988714870614
H    5.670776416399201   -6.351299564367267   -0.1471708044818152
C    4.6140942940027765   -4.476862279993225   -0.19474945154448464
H    1.8927888802320831   -8.513526841722014   0.9908429289688712
C    3.3357272917054335   -3.8720958424184717   -0.23437669836156028
H    8.697795777454314   0.495865099834834   -1.0395639535869137
C    2.2000142709651236   -4.703063863460327   -0.2791106076041886
H    1.2249839511969243   -4.240038584836488   -0.31894962881342104
C    5.798709825774649   -3.669210743294999   -0.17300779925251863
C    6.854429396571698   -1.4401795238368829   -0.20064276707831818
C    1.0036306176249505   -7.882640500222081   0.9148167082904652
C    7.071280814171026   -4.293420418459939   -0.13348110179302003
C    6.773898746327348   -0.045465588247078914   -0.2260209409770415
H    5.456622130099241   1.633412492480186   -0.25966843174019316
H    7.826025504367753   -1.9222132754252148   -0.1798367811787847
C    8.033109978934977   0.7812959378435373   -0.21857556547578127
H    -2.2658522038481754   -4.1066537671212515   5.93904107509907
C    -2.6350994134688164   -4.975542084212237   5.388554686122272
H    -2.434472389547191   -5.864646276050551   5.994745776695346
H    -3.5869343681858745   -6.332003119364199   3.197432225944977
C    -2.5019678298741765   -6.371136436929812   3.3313469925884296
C    -0.4446186604614426   -5.266984700832814   4.195242686585749
H    -2.277996927783348   -7.242650827684235   3.9527718058281076
H    -2.0407923126306864   -6.537002379510855   2.353417662394395
H    -3.719226476775194   -4.8709453383754155   5.287004178155495
H    0.9434702142697461   -7.280038420254534   1.8257617865242348
H    -8.534628845362139   -0.18498051816948224   2.0218683030128224
H    -7.906141440021952   0.6649265098762185   3.430379985534795
H    -7.354460615871561   -0.9764852779372364   3.07509983154261
C    2.5744076566422183   6.267800972939831   -0.3179530819755825
C    3.6279272949772596   6.869532306712947   0.62911078173205
H    3.516925776973916   6.494796763827475   1.6496977703657296
H    4.639844393344665   6.626670307243735   0.2920277968685032
C    2.7720556298442633   6.8831472170214605   -1.7085697860332956
H    3.532653860004737   7.959529324450507   0.6615747809987096
H    2.0320865271746773   6.516078608001424   -2.425674100992444
C    1.1672620054932845   6.645119781929574   0.17986754082043577
H    2.660544598015471   7.96929840232731   -1.6476475430767652
H    3.769350366022321   6.6761823800206495   -2.1075569904760565
H    0.24564117414692777   -8.533557149722103   -1.6482244609219059
H    0.9836669947053878   6.286447584097378   1.195655669499549
H    1.0445601137613811   7.7328498253653315   0.1850206728656829
H    0.39425019493900176   6.218842095679849   -0.46632318512412674
C    1.0411224272050688   -6.987872927069789   -0.33755351940237976
C    -0.2668432886519976   -6.190252794826201   -0.3978080874288277
H    -1.1144033971546228   -6.88112608795601   -0.43138004348705516
H    -0.39920196883778436   -5.547275531079131   0.47752949237236986
C    1.1187253439373492   -7.875495676406141   -1.5935410621334525
H    -0.3193316695428564   -5.562777320602453   -1.292271827365009
H    1.1434636051132183   -7.265871601654549   -2.5013246469389347
H    9.111781035773637   -5.29530977554944   -0.07310661883306982
C    8.155758547008617   -4.825822925448708   -0.10158975445758806
C    -8.23500668640886   4.6742648086299186   -0.3843859705063971
H    -9.179711803882176   5.165326650689326   -0.3444004599833203
H    -0.6532644241703485   7.543616131558697   -4.056625668881615
C    -2.1403727702507456   1.5015178682523322   -0.5718839371982951
C    -2.7210229704683764   -1.4572217724656646   1.7227069100121861
C    -3.1733797223161044   -2.6904964216590836   1.2587290806084892
H    -3.712133335717885   -2.739595890207677   0.3172022585241885
C    -2.9376007887413462   -3.8595114563210933   1.9775850776214638
H    -3.3038790544346117   -4.795037612139119   1.5722231837302818
C    -2.2461593042545243   -3.8414434998158473   3.1890657738634767
H    -0.5894607581996378   3.8306030069833477   -4.208151389442765
C    -1.8032353279920603   -2.5970490846124292   3.651839158771251
H    -1.262612074045709   -2.532480728803273   4.590836486799727
C    -2.03215868086555   -1.4305934048382662   2.937922486307789
H    -1.6678410949955031   -0.4825395389432323   3.32137807368297
C    -2.8097775484832535   5.067376293924841   -2.952202104103112
C    -3.3642209327441246   2.158995039984828   -0.580022465797724
C    -4.417886109800098   1.6252199253710198   0.20821843334649517
C    -5.696351719240429   2.2684392032845646   0.2614375318776488
C    -4.210522699874757   0.4326826852442484   0.9582080299633223
C    -5.281396274194368   -0.08231446125475728   1.7368860055309865
C    -2.9411288792708623   -0.2092617689136431   0.9341856427632818
H    -1.3305804783123716   1.8743739559748203   -1.1833608231245345
C    -1.9010826582146294   0.34146893845091875   0.1816149215660807
H    7.810782463493306   1.8457118972310742   -0.3186613759863144
H    -2.296480074108515   7.743401920915561   -3.4405190494324236
C    -4.0711436856770575   5.693837243403635   -2.8576505375324155
C    -5.061524928951193   5.182444146145102   -2.0597607385779404
H    -6.025077652586955   5.6755999504133055   -2.0025428422585767
C    -4.8603480249853055   4.007078151994648   -1.3012452945555828
H    0.29777263767421025   5.324477501691364   -4.5122122992887945
C    -3.599769943487707   3.368423212989751   -1.3690356670396508
H    3.6692565267047126   -7.743761197086448   -0.2210151979199404
C    -2.6091991931614555   3.9228009679203018   -2.201970995528644
H    -1.6504142255404148   3.428831846669642   -2.2601769191527517
C    -5.906422001416116   3.463443793797644   -0.48498636924986965
C    -6.7131713155577355   1.708896931547135   1.0494960243076852
C    -0.4347684445857438   4.85276442389983   -3.8506528042445374
C    -7.163307474375512   4.117527715037171   -0.429825521366675
C    -6.515246192695205   0.5379121889953304   1.7856893558628526
H    -5.116787433275484   -0.9862473451269502   2.3112815735952754
H    -7.676034528669332   2.2075648946302384   1.0813284513004546
C    -7.634873167327439   -0.02282610024618348   2.6230709237260523
C    -2.260467857332504   5.699651838167617   -5.313293676685504
C    -1.7352979846829137   5.664548797697108   -3.866098276026498
H    -2.4943319191325166   4.6918132391101075   -5.66811557081752
C    -1.4145007552484805   7.098870015117718   -3.4075606710301267
H    -3.1666928292109273   6.303691536785159   -5.402702726213563
H    -4.271295938021063   6.595975619873101   -3.42649402977439
H    -0.22604780198984303   -6.171967512572604   4.770976707357699
H    -1.5069231092595874   6.1299745009026045   -5.980607343732039
C    -0.5753554074797549   -0.2989065781308563   0.16636823430183945
H    0.007789622063244989   4.8007616127209785   -2.85136004863837
H    0.06314349905416139   -5.347466697548851   3.229572834762326
H    -1.0337366202408838   7.1069405035756965   -2.3821207982631427
H    -0.006167099942605003   -4.420637748387482   4.729696154120031
C    -1.9643189591306225   -5.105131519865843   4.009354881269403
H    8.591718869438946   0.6406902579143383   0.712297314887191
H    -0.5517588518599942   -1.320945793056029   0.5282875980697163
H    0.5588016500471055   1.3339361975638062   -0.49095056313995655
