118

C    -2.152369645489957   0.12471325653751665   6.001150135567606
C    -3.5394096454899566   0.18176325653751665   5.989740135567606
C    -4.220419645489956   0.2739532565375167   4.783530135567606
C    -3.5144096454899567   0.30908325653751667   3.588750135567606
C    -2.1273696454899564   0.25202325653751667   3.6001701355676063
C    -1.4463596454899565   0.15984325653751666   4.806370135567606
C    -0.05931220165714279   0.10279380994567983   4.817758887684952
C    0.6466932756098789   0.13863021324471664   3.622995808668753
C    -0.034045672211648004   0.2198513897649489   2.4163074227915207
C    -1.4210235119372534   0.2745656021810186   2.4048108976751044
H    1.7278917641071736   0.09437852480750525   3.6318856732165115
C    0.0   0.0   0.0
C    0.6730803859814678   0.21294790798426938   1.2196525209710156
C    -2.1021416615155832   0.37045705416621644   1.1987666324911244
C    -1.3952250402931097   0.3713674785382042   0.0024618932391291537
H    1.752983165868681   0.21883433053661305   1.2308710960302713
C    -2.0774031625020166   0.5079724537332716   -1.20175344141842
C    -3.464482603110638   0.565554590011859   -1.2131177092515992
C    -4.170489077350903   0.5296614075978371   -0.018344618631247478
C    -3.489457693384524   0.4370728189817139   1.1878110025656357
H    -1.5270579340736012   0.5352374384295754   -2.1331247952564505
H    -3.995458331660669   0.6377439884052506   -2.1532781330823543
H    -5.2516952960225565   0.5737851369810751   -0.02723845654177559
C    -4.190621604622984   0.21553292648988848   2.3799198428681634
C    -5.5728708991279365   0.08755965569905699   2.3659010513236325
C    -6.2781416718299   0.04148854466628779   3.560292044720716
C    -5.601781020007884   0.13270665450659672   4.769030588874922
H    -6.099990845649463   0.014855476810287455   1.4236239808707283
C    -8.342984384636495   -0.4689115913757548   4.728175418741032
C    -7.657523764389216   -0.12915549022982373   3.544686585146426
C    -6.308043156722148   0.1012813118227831   5.963964108328205
C    -7.687943481151006   -0.06156081053537346   5.948650545158895
H    -8.187922726532925   -0.1517899738597723   2.6041999337192854
C    -8.396917614164035   -0.05233544937656057   7.145075659122499
C    -7.720731608475189   0.04174731604879592   8.353940888385628
C    -6.338466513975698   0.1696654781321659   8.367953476333913
C    -5.632455767550722   0.20438414710640773   7.173160098719595
H    -9.474354743436447   -0.1527618048231382   7.134138191799515
H    -8.270980614549892   0.014708233769136797   9.285360812711136
H    -5.811330996199986   0.24224241489682288   9.310234551858041
C    -4.250004104350053   0.0325195762373226   7.172984317214889
C    -3.57353610393014   -0.17306810293516908   8.367685764143395
C    -2.1873987253171694   -0.24100378571131062   8.378037856936299
C    -1.4769936372866854   -0.0940813965037112   7.1945803099706715
H    -4.127429473169769   -0.28918624047184216   9.290044765182275
C    -0.15207674204371413   -0.8492264739621355   9.550882641516115
C    -1.5143891097439086   -0.48905266970466665   9.568662769653589
C    -0.08966740426418474   -0.14744367569825853   7.2063388880634385
C    0.5839730913919148   -0.38772859912989766   8.397703066462963
H    -2.0643288795067827   -0.5553432706098147   10.495767039015858
C    1.9745669722442258   -0.40063901487204456   8.413338334109635
C    2.68521278839951   -0.2508647385237006   7.23012896392774
C    2.0087306796444775   -0.04533127952054375   6.035413870674112
C    0.6217017178467463   0.011306723384426842   6.02398710406351
H    2.5018419357101553   -0.5615633430970821   9.344552768105276
H    3.7664270611847694   -0.2949839712584508   7.238923605227846
H    2.562617795139592   0.0706607642900425   5.113032279247405
C    2.9318656294725693   -0.5855837022499395   -7.320234834600926
C    4.318905629472569   -0.6426337022499401   -7.308824834600926
C    4.999915629472569   -0.7348237022499398   -6.102614834600925
C    4.293905629472569   -0.7699537022499382   -4.907834834600925
C    2.9068656294725685   -0.7128937022499383   -4.919254834600926
C    2.2258556294725684   -0.620713702249938   -6.125454834600926
C    0.8388081856397546   -0.5636642556581011   -6.136843586718271
C    0.13280270837273256   -0.599500658957137   -4.942080507702071
C    0.8135416561942592   -0.6807218354773688   -3.7353921218248387
C    2.2005194959198646   -0.7354360478934391   -3.723895596708423
H    -0.9483957801245623   -0.5552489705199251   -4.95097037224983
C    0.7794959839826107   -0.4608704457124187   -1.3190846990333176
C    0.10641559800114297   -0.6738183536966884   -2.538737220004333
C    2.8816376454981945   -0.8313274998786366   -2.5178513315244424
C    2.1747210242757204   -0.8322379242506235   -1.3215465922724468
H    -0.9734871818860705   -0.6797047762490316   -2.549955795063589
C    2.8568991464846274   -0.9688428994456906   -0.11733125761489727
C    4.243978587093249   -1.0264250357242788   -0.10596698978171837
C    4.949985061333515   -0.9905318533102578   -1.3007400804020706
C    4.2689536773671355   -0.8979432646941349   -2.506895701598954
H    2.3065539180562116   -0.9961078841419937   0.8140400962231338
H    4.77495431564328   -1.0986144341176702   0.8341934340490371
H    6.031191280005168   -1.0346555826934962   -1.2918462424915425
C    4.9701175886055955   -0.6764033722023101   -3.6990045419014823
C    6.352366883110549   -0.5484301014114797   -3.684985750356952
C    7.057637655812513   -0.5023589903787113   -4.879376743754035
C    6.381277003990498   -0.5935771002190205   -6.088115287908242
H    6.879486829632075   -0.47572592252270934   -2.7427086799040463
C    9.122480368619106   0.008041145663329863   -6.047260117774353
C    8.43701974837183   -0.3317149554826003   -4.863771284179746
C    7.087539140704761   -0.5621517575352071   -7.283048807361525
C    8.46743946513362   -0.39930963517705176   -7.267735244192215
H    8.967418710515537   -0.30908047185265114   -3.9232846327526043
C    9.176413598146649   -0.4085349963358657   -8.46416035815582
C    8.500227592457803   -0.5026177617612222   -9.673025587418948
C    7.117962497958312   -0.6305359238445913   -9.687038175367235
C    6.411951751533335   -0.6652545928188323   -8.492244797752917
H    10.25385072741906   -0.3081086408892894   -8.453222890832835
H    9.050476598532505   -0.4755786794815647   -10.604445511744458
H    6.590826980182601   -0.7031128606092479   -10.629319250891363
C    5.029500088332666   -0.49339002194974707   -8.492069016248209
C    4.353032087912752   -0.2878023427772553   -9.686770463176718
C    2.9668947092997824   -0.21986666000111288   -9.69712255596962
C    2.256489621269298   -0.3667890492087117   -8.51366500900399
H    4.906925457152383   -0.17168420524058353   -10.609129464215595
C    0.9315727260263277   0.3883560282497119   -10.869967340549437
C    2.293885093726522   0.028182223992242017   -10.88774746868691
C    0.8691633882467971   -0.3134267700141639   -8.525423587096757
C    0.1955228925906981   -0.07314184658252476   -9.716787765496282
H    2.843824863489397   0.09447282489739045   -11.814851738049178
C    -1.1950709882616133   -0.06023143084037713   -9.732423033142954
C    -1.905716804416898   -0.21000570718872075   -8.549213662961058
C    -1.2292346956618654   -0.4155391661918771   -7.354498569707431
C    0.157794266135866   -0.47217716909684826   -7.343071803096828
H    -1.7223459517275428   0.1006928973846602   -10.663637467138596
H    -2.9869310772021573   -0.16588647445396987   -8.558008304261165
H    -1.7831218111569802   -0.5315312100024626   -6.432116978280725
H    0.3461594408384321   -1.3659818790978182   10.447860469205501
H    -9.396300925648669   -0.9269302145601724   4.7039293616865585
H    0.433336543144182   0.9051114333853953   -11.766945168238824
H    10.175796909631282   0.4660597688477474   -6.023014060719879
