9
XYZ file generated by Avogadro.
C     -3.33953    0.97319    0.00000
C     -2.70573   -0.24008   -0.00002
H     -4.39036    1.23842   -0.00000
O     -2.48240    2.05271    0.00004
C     -1.31898    0.06444    0.00000
H     -3.15463   -1.22774   -0.00005
C     -1.25183    1.43162    0.00004
H     -0.49758   -0.64428   -0.00001
H     -0.40881    2.11274    0.00007
