60

C    0.68103   -0.09218   1.2062
C    -0.70601   -0.03513   1.19479
C    -1.38702   0.05706   -0.01142
C    -0.68101   0.09219   -1.2062
C    0.70603   0.03513   -1.19478
C    1.38704   -0.05705   0.01142
C    2.774087443832814   -0.11409944659183682   0.022808752117345413
C    3.4800929210998355   -0.07826304329280001   -1.1719543268988533
C    2.7993539732783086   0.0029581332274322414   -2.3786427127760854
C    1.4123761335527032   0.05767234564350197   -2.3901392378925017
H    4.56129140959713   -0.1225147317300114   -1.1630644623510948
C    2.8333996454899566   -0.21689325653751665   -4.794950135567606
C    3.5064800314714244   -0.003945348553247255   -3.5752976145965905
C    0.7312579839743736   0.15356379762869982   -3.5961835030764817
C    1.438174605196847   0.15447422200068756   -4.792488242328477
H    4.586382811358638   0.0019410739990964043   -3.5640790395373347
C    0.7559964829879401   0.2910791971957549   -5.996703576986026
C    -0.6310829576206813   0.3486613334743424   -6.008067844819205
C    -1.337089431860947   0.3127681510603204   -4.8132947541988536
C    -0.6560580478945675   0.22017956244419723   -3.6071391330019704
H    1.3063417114163554   0.3183441818920587   -6.928074930824057
H    -1.162058686170712   0.4208507318677339   -6.94822826864996
H    -2.4182956505326   0.3568918804435585   -4.822188592109382
C    -1.357221959133027   -0.0013603300476281721   -2.4150302926994427
C    -2.73947125363798   -0.12933360083845966   -2.4290490842439736
C    -3.444742026339943   -0.17540471187122886   -1.23465809084689
C    -2.7683813745179275   -0.08418660203091993   -0.02591954669268426
H    -3.2665912001595068   -0.2020377797272292   -3.371326154696878
C    -5.509584739146539   -0.6858048479132715   -0.06677471682657354
C    -4.82412411889926   -0.3460487467673404   -1.2502635504211799
C    -3.474643511232191   -0.11561194471473354   1.1690139727605988
C    -4.854543835661049   -0.2784540670728901   1.153700409591289
H    -5.354523081042969   -0.36868323039728895   -2.1907502018483207
C    -5.563517968674078   -0.2692287059140772   2.3501255235548926
C    -4.8873319629852325   -0.17514594048872073   3.558990752818022
C    -3.5050668684857413   -0.04722777840535075   3.5730033407663075
C    -2.799056122060765   -0.01250910943110893   2.3782099631519893
H    -6.640955097946489   -0.36965506136065485   2.339188056231909
H    -5.437580969059935   -0.20218502276837985   4.4904106771435295
H    -2.97793135071003   0.025349158359306234   4.515284416290435
C    -1.4166044588600966   -0.18437368030019405   2.378034181647283
C    -0.7401364584401834   -0.38996135947268573   3.5727356285757885
C    0.6460009201727872   -0.45789704224882727   3.5830877213686936
C    1.3564060082032712   -0.31097465304122784   2.399630174403066
H    -1.2940298276798128   -0.5060794970093588   4.495094629614669
C    2.6813229034462425   -1.0661197304996521   4.755932505948508
C    1.319010535746048   -0.7059459262421833   4.7737126340859835
C    2.743732241225772   -0.3643369322357752   2.411388752495833
C    3.4173727368818714   -0.6046218556674143   3.602752930895357
H    0.7690707659831737   -0.7722365271473314   5.700816903448252
C    4.807966617734182   -0.6175322714095612   3.6183881985420285
C    5.518612433889467   -0.46775799506121724   2.435178828360134
C    4.842130325134434   -0.2622245360580604   1.2404637351065053
C    3.455101363336703   -0.2055865331530898   1.2290369684959042
H    5.335241581200112   -0.7784565996345988   4.5496026325376695
H    6.599826706674726   -0.5118772277959674   2.44397346966024
H    5.3960174406295485   -0.14623249224747414   0.3180821436797995
R    3.1795590863283887   -1.5828751356353348   5.652910333637895
R    -6.562901280158712   -1.1438234710976891   -0.09102077388104735
R    3.3930996496949506   -0.5478111774808434   -5.7420899884551115
