13

C 0.000000 0.000000 0.000000
F -0.445577 1.099843 -0.564930
F 0.709404 0.309492 1.062215
C 0.687624 -0.599753 -0.779404
F 0.172765 -1.790130 -0.992147
F 0.744119 0.062177 -1.913422
C 1.793755 -0.717004 -0.329152
F 2.263080 0.525522 -0.134823
F 1.656277 -1.270190 0.886282
S 2.909992 -1.732318 -1.447430
O 2.213279 -2.997752 -1.505392
O 4.156128 -1.735481 -0.714023
O 2.905860 -0.957602 -2.668312
