25

C 0.000000 0.000000 0.000000
F -0.445577 1.099843 -0.564930
F 0.709404 0.309492 1.062215
C 0.687624 -0.599753 -0.779404
F 0.172765 -1.790130 -0.992147
F 0.744119 0.062177 -1.913422
C 1.793755 -0.717004 -0.329152
F 2.308614 0.473373 -0.116409
F 1.737257 -1.378933 0.804866
C 2.481379 -1.316757 -1.108556
F 1.966520 -2.507135 -1.321299
F 2.537874 -0.654827 -2.242574
C 3.587510 -1.434009 -0.658305
F 4.102369 -0.243631 -0.445562
F 3.531012 -2.095937 0.475714
C 4.275134 -2.033761 -1.437708
F 3.760275 -3.224139 -1.650451
F 4.331629 -1.371832 -2.571726
C 5.381264 -2.151013 -0.987457
F 5.850590 -0.908487 -0.793128
F 5.243787 -2.704198 0.227977
S 6.497501 -3.166327 -2.105735
O 5.800789 -4.431761 -2.163696
O 7.743638 -3.169489 -1.372327
O 6.493369 -2.391611 -3.326616
