132

C    0.68103   -0.09218   1.2062
C    -0.70601   -0.03513   1.19479
C    -1.38702   0.05706   -0.01142
C    -0.68101   0.09219   -1.2062
C    0.70603   0.03513   -1.19478
C    1.38704   -0.05705   0.01142
C    2.7740621521884705   -0.11410844685706074   0.022824528956706946
C    3.4800530062145594   -0.07897650747354323   -1.1719667274000958
C    2.799020807347949   0.013214829158501147   -2.378184835022804
C    1.4120076664617227   0.07026372442291959   -2.389594614075687
H    3.3049137095543646   -0.1860135905604246   0.9630687275302495
H    4.561240505806848   -0.12357141069645891   -1.1630793300357816
C    0.7550769514277796   -0.7718432587434382   -3.6365547078624214
C    1.459811807437472   -0.6872365743267094   -4.829176743567808
C    2.8370116937491954   -0.3624916932461038   -4.801104025007657
C    3.5067600198195192   -0.01770905117714911   -3.575845557554125
I    5.207612224899613   -0.17888879205949992   -3.565795092287423
C    5.024289228507375   -1.3400562060822583   -7.3515404757464164
C    4.3167404641334635   -1.3181362687408515   -6.1542767323002305
C    3.448784735429478   -0.3898371998234617   -5.836399487391584
C    3.2881592790871346   0.524677950842449   -6.715413095895695
C    3.9945757379750324   0.5465908255570787   -7.910766753046901
C    4.862813387270423   -0.3925453895283402   -8.229114952471534
H    5.701331303581566   -2.0851093154681246   -7.600292813342902
H    4.441449183580691   -2.0157602331242837   -5.468351419395701
H    2.612204770221034   1.2275695267082063   -6.468475378641957
H    3.868408958303121   1.2973821523558227   -8.594310004023447
C    6.964009138024552   0.013546690085309891   -8.93069376844143
C    5.473591753338504   -0.38115823414937566   -9.262717499973382
H    7.332479363566838   -0.7036397547725566   -8.304084702073006
H    7.560698539909188   0.021847053511507293   -9.847152811077994
H    7.115118900766608   1.016298539002237   -8.383666055353212
C    5.255770534496023   -1.8055455977561237   -10.00095952810956
H    4.19849137314156   -2.1031612191767404   -10.218782513881512
H    5.8017272891179665   -1.8320255134320624   -10.947730132678803
H    5.598710268348685   -2.549652590416749   -9.383020396804024
C    4.943557525843252   0.6634237238916106   -10.114207997011238
H    5.477705305873828   0.7301883987410331   -11.06513649447835
H    3.883574848344577   0.3863150228190277   -10.332407031264763
H    5.06613172268828   1.6628733094875114   -9.576832203454
C    0.7873222973016444   -0.9256129582407905   -6.049792106618902
C    -0.590034908578202   -1.2442548813266934   -6.077604402259629
C    -1.289519382364982   -1.5326769863942233   -4.893859421341575
C    -0.6129998886135868   -1.450667435612478   -3.680064120037531
H    1.335738875891598   -0.823935832746785   -6.977906778221495
H    -1.1183251386641453   -1.27590080791001   -7.022312749937398
H    -2.3634208382394517   -1.7712076450447323   -4.915111280217768
H    -1.1515666268727556   -1.9353339516251593   -2.768663801061563
C    -1.362023891133965   0.18436063029925742   -2.4124092833720088
C    -2.749034611246107   0.24140942599541462   -2.42381904251124
C    -3.455050339036299   0.2062874423378724   -1.2290075678522263
C    -2.7740456240298457   0.11410805409953828   -0.02280453725456355
H    -0.8116811977466427   0.21169498225067288   -3.3437570334839544
H    -3.2798906242883787   0.31313967295299366   -3.3640747341123416
C    -3.5410098160442627   -0.8482583952036478   1.064038761649388
C    -4.924792950162482   -0.7421056901618777   1.0583230538782655
C    -5.580897094621047   -0.27101059099277464   -0.10379725027943443
C    -4.846382676981031   0.1977843694830561   -1.248094439790988
I    -5.686226171204531   0.22003745779028722   -2.7357590019554725
C    -8.895434134929621   -1.1219490411818511   -0.8347483036911045
C    -7.504672125264511   -1.122386598979754   -0.8166637797461233
C    -6.78360791126978   -0.2789727348327493   -0.1203508441816259
C    -7.452754972441695   0.5729531673417696   0.558816211620714
C    -8.840657941971033   0.6168923756790358   0.5457990585878465
C    -9.562428880336766   -0.23727649034102566   -0.15176906214912256
H    -9.458889167708394   -1.8006824915305724   -1.3799153992682507
H    -6.981964831770306   -1.7713455021172277   -1.344256826172978
H    -6.892029555772003   1.2098444622840234   1.0990992737366065
H    -9.359798682595857   1.3186108179561185   1.0795791329970705
C    -11.2103986813535   0.3594658123378632   -1.566067953565022
C    -10.762611842730902   -0.20679774598858403   -0.16385247591625474
H    -10.86069990969471   -0.2855031653769502   -2.2763435428541383
H    -12.302015115457541   0.39060240486132747   -1.6244493597212977
H    -10.796507330389366   1.3960467793401952   -1.8520375292796378
C    -11.315305379290649   -1.6778455655033853   0.22585883317426791
H    -10.98254913206262   -2.0962527778577105   1.209764225404225
H    -12.40847836882529   -1.6880339543578804   0.2221773643927698
H    -10.960816785476142   -2.3526711810858036   -0.4612364098519359
C    -11.22220226145143   0.7360409846321196   0.8346241592579662
H    -12.31174691778065   0.8170203175455426   0.853889919552981
H    -10.888128152348566   0.33769659375645966   1.8234009607868016
H    -10.80253338139475   1.7658592284705705   0.5776240286145107
C    -5.652365217533795   -1.1052972160846362   2.21491192526563
C    -4.995867958338116   -1.570335676624664   3.3777402231724833
C    -3.625367670669907   -1.878765319962161   3.359903849631344
C    -2.907995252005387   -1.6707605317469345   2.185248986987939
H    -6.728712841965818   -0.9870960372198574   2.214599100167591
H    -5.552866481626742   -1.7004487583627732   4.297190670483558
H    -3.112988248420781   -2.2314862510211024   4.267465487207444
H    -1.8566284227800698   -2.169063362407749   2.1413356166708
C    -1.412008304554022   -0.07027130365756781   2.389590260731514
C    -0.7309853892169026   -0.16245101226004682   3.5957802024520094
C    0.656055596187447   -0.21949105279046993   3.607180210558094
C    1.3620529153371193   -0.18435970860247894   2.4123899417204955
H    -2.4932023311230918   -0.025850819810119018   2.3806921639620238
H    -1.2813234328879621   -0.18996093360951466   4.527126186721903
C    2.6722556489193634   -1.173735334640146   2.423173191015781
C    3.357327230225331   -1.2165425835355308   3.6294075365316116
C    2.6826994529659314   -0.8706800736349948   4.824473780958162
C    1.3316144034081563   -0.3775858986701614   4.813359551797176
I    0.4595079727379108   -0.5117272349682367   6.276375142872188
C    3.685423373730642   -2.1029979692436687   7.942242024904493
C    3.0091486133547827   -1.9538892603747409   6.736022620977956
C    3.2666174097542044   -1.007952287161141   5.867089186955651
C    4.2010187881762135   -0.20300313983239673   6.2043640839994065
C    4.880900365202319   -0.3083712950352273   7.4106117145547525
C    4.6225377330424   -1.2651224273542483   8.27953923933776
H    3.4830314240950777   -2.86175965002264   8.619505668687484
H    2.2820288048311856   -2.5661320796029785   6.473000740467099
H    4.39992273594811   0.5136883279631046   5.527060709408795
H    5.612381059643447   0.35693324438000723   7.673562113181546
C    4.22451045858541   -0.9117952156014542   10.467890528631417
C    5.209635541272893   -1.363742833294186   9.3221821720189
H    3.4250822842226807   -1.5467345970805142   10.444821030669356
H    4.717446931803416   -1.0002187890778855   11.440104095811916
H    3.785670703658721   0.14929576115921386   10.372547158008295
C    5.801177186650881   -2.866585124972718   9.435629363315735
H    6.482880659704395   -3.2026530153925346   8.613315625053913
H    6.34172799287174   -2.993779235068828   10.377314568561513
H    5.01903539958726   -3.529632667058924   9.393512508704069
C    6.318044486549131   -0.43182454361695305   9.331222488588581
H    6.878021906825142   -0.46705257478691703   10.268890156056813
H    7.003609867951441   -0.7476063444582532   8.50766600027907
H    5.901357415791953   0.6244606989304404   9.215766770576485
C    4.717158843871957   -1.6034536302602715   3.640593716246478
C    5.39229339614036   -1.9432266577113093   2.445534429986618
C    4.69045409306865   -2.103805535286451   1.2391538779427946
C    3.3177656323585785   -1.8729330440918135   1.2278619358670781
H    5.25413204612832   -1.6011734822387074   4.580886439896178
H    6.464981641485102   -2.0909763682195   2.454243355844464
H    5.217531817026282   -2.358828745378374   0.30761478119306707
H    2.749321078172331   -2.2573999816997015   0.28729706971754077
