132

C    0.68103   -0.09218   1.2062
C    -0.70601   -0.03513   1.19479
C    -1.38702   0.05706   -0.01142
C    -0.68101   0.09219   -1.2062
C    0.70603   0.03513   -1.19478
C    1.38704   -0.05705   0.01142
C    2.7740625243370216   -0.11409930194722924   0.02282501771553968
C    3.4800529609546302   -0.0789776196583579   -1.1719667868419226
C    2.799019995160917   0.013194871060700712   -2.3781859017032585
C    1.4120072490532436   0.0702534673282734   -2.3895951622763465
H    3.3049181374514647   -0.1859047826136436   0.9630745428795537
H    4.561250297004265   -0.12333080887953432   -1.1630664708315597
C    0.8308729423959383   1.0907127053269738   -3.5370085455686193
C    1.5315935067141144   1.0766750836788246   -4.7349027246567115
C    2.8778188909867692   0.6402749124939042   -4.747510163022618
C    3.5121175318060054   0.11394258073039809   -3.5688093047010967
I    5.220377486914301   0.13479554130275304   -3.549029920040109
C    5.148134656796776   1.7032319432893546   -7.188888903461793
C    4.435958191261297   1.6114340930761102   -5.997702920659571
C    3.494273641618814   0.7279743419186012   -5.776656933989342
C    3.263886961590106   -0.07177245686967726   -6.747290983181594
C    3.9713750913957266   -0.023525114674242467   -7.941237168437009
C    4.914220736101895   0.8707016891110668   -8.161599451658018
H    5.8843884526713195   2.413204915242021   -7.359875920053854
H    4.6138094019725875   2.2196953448517016   -5.241983269129774
H    2.5321410832723332   -0.7398577174901745   -6.573626491161665
H    3.787752501576775   -0.6846113884312045   -8.70023962680121
C    6.978623439001026   0.37266797205236496   -8.911500173130756
C    5.526538500046805   0.9199168966065004   -9.193180241162857
H    7.401274304466038   0.9868774590402811   -8.21373332247799
H    7.576641519495096   0.41361832443870283   -9.826214204523298
H    7.045619551003409   -0.6915283097138513   -8.474942565660301
C    5.428041354493584   2.4277131686151763   -9.77470878863222
H    4.399305426709386   2.8314983632678334   -9.955044707804978
H    5.978443348899441   2.5104673663202903   -10.715641266998327
H    5.827464651930751   3.0715924913582424   -9.08258734351701
C    4.9173034054233025   0.018273921837528163   -10.148688672028777
H    5.448398354816292   0.010020540471775925   -11.103626584376848
H    3.884212959487022   0.401995505373798   -10.331568972225812
H    4.956167397496908   -1.0393106332781556   -9.721253121001308
C    0.8859211954325263   1.497285184770393   -5.920297897361185
C    -0.4609566010588364   1.9276222645675372   -5.908080262726578
C    -1.1398917943392959   2.1441633439048657   -4.697347020474723
C    -0.47750384972159576   1.8789144079999671   -3.5021112955487563
H    1.4283103707725227   1.45084925405036   -6.8563286190670425
H    -0.9808499200180696   2.1023159701871195   -6.841760582838385
H    -2.190833714791694   2.469823733968664   -4.688445125700858
H    -0.9789721024966915   2.305879292457632   -2.5419879265845213
C    -1.362023891133965   0.18436063029925742   -2.4124092833720088
C    -2.749034611246107   0.24140942599541462   -2.42381904251124
C    -3.455050339036299   0.2062874423378724   -1.2290075678522263
C    -2.7740456240298457   0.11410805409953828   -0.02280453725456355
H    -0.8116811977466427   0.21169498225067288   -3.3437570334839544
H    -3.2798906242883787   0.31313967295299366   -3.3640747341123416
C    -3.5410098160442627   -0.8482583952036478   1.064038761649388
C    -4.924792950162482   -0.7421056901618777   1.0583230538782655
C    -5.580897094621047   -0.27101059099277464   -0.10379725027943443
C    -4.846382676981031   0.1977843694830561   -1.248094439790988
I    -5.686226171204531   0.22003745779028722   -2.7357590019554725
C    -8.895434134929621   -1.1219490411818511   -0.8347483036911045
C    -7.504672125264511   -1.122386598979754   -0.8166637797461233
C    -6.78360791126978   -0.2789727348327493   -0.1203508441816259
C    -7.452754972441695   0.5729531673417696   0.558816211620714
C    -8.840657941971033   0.6168923756790358   0.5457990585878465
C    -9.562428880336766   -0.23727649034102566   -0.15176906214912256
H    -9.458889167708394   -1.8006824915305724   -1.3799153992682507
H    -6.981964831770306   -1.7713455021172277   -1.344256826172978
H    -6.892029555772003   1.2098444622840234   1.0990992737366065
H    -9.359798682595857   1.3186108179561185   1.0795791329970705
C    -11.2103986813535   0.3594658123378632   -1.566067953565022
C    -10.762611842730902   -0.20679774598858403   -0.16385247591625474
H    -10.86069990969471   -0.2855031653769502   -2.2763435428541383
H    -12.302015115457541   0.39060240486132747   -1.6244493597212977
H    -10.796507330389366   1.3960467793401952   -1.8520375292796378
C    -11.315305379290649   -1.6778455655033853   0.22585883317426791
H    -10.98254913206262   -2.0962527778577105   1.209764225404225
H    -12.40847836882529   -1.6880339543578804   0.2221773643927698
H    -10.960816785476142   -2.3526711810858036   -0.4612364098519359
C    -11.22220226145143   0.7360409846321196   0.8346241592579662
H    -12.31174691778065   0.8170203175455426   0.853889919552981
H    -10.888128152348566   0.33769659375645966   1.8234009607868016
H    -10.80253338139475   1.7658592284705705   0.5776240286145107
C    -5.652365217533795   -1.1052972160846362   2.21491192526563
C    -4.995867958338116   -1.570335676624664   3.3777402231724833
C    -3.625367670669907   -1.878765319962161   3.359903849631344
C    -2.907995252005387   -1.6707605317469345   2.185248986987939
H    -6.728712841965818   -0.9870960372198574   2.214599100167591
H    -5.552866481626742   -1.7004487583627732   4.297190670483558
H    -3.112988248420781   -2.2314862510211024   4.267465487207444
H    -1.8566284227800698   -2.169063362407749   2.1413356166708
C    -1.412008304554022   -0.07027130365756781   2.389590260731514
C    -0.7309853892169026   -0.16245101226004682   3.5957802024520094
C    0.656055596187447   -0.21949105279046993   3.607180210558094
C    1.3620529153371193   -0.18435970860247894   2.4123899417204955
H    -2.4932023311230918   -0.025850819810119018   2.3806921639620238
H    -1.2813234328879621   -0.18996093360951466   4.527126186721903
C    2.6722556489193634   -1.173735334640146   2.423173191015781
C    3.357327230225331   -1.2165425835355308   3.6294075365316116
C    2.6826994529659314   -0.8706800736349948   4.824473780958162
C    1.3316144034081563   -0.3775858986701614   4.813359551797176
I    0.4595079727379108   -0.5117272349682367   6.276375142872188
C    3.685423373730642   -2.1029979692436687   7.942242024904493
C    3.0091486133547827   -1.9538892603747409   6.736022620977956
C    3.2666174097542044   -1.007952287161141   5.867089186955651
C    4.2010187881762135   -0.20300313983239673   6.2043640839994065
C    4.880900365202319   -0.3083712950352273   7.4106117145547525
C    4.6225377330424   -1.2651224273542483   8.27953923933776
H    3.4830314240950777   -2.86175965002264   8.619505668687484
H    2.2820288048311856   -2.5661320796029785   6.473000740467099
H    4.39992273594811   0.5136883279631046   5.527060709408795
H    5.612381059643447   0.35693324438000723   7.673562113181546
C    4.22451045858541   -0.9117952156014542   10.467890528631417
C    5.209635541272893   -1.363742833294186   9.3221821720189
H    3.4250822842226807   -1.5467345970805142   10.444821030669356
H    4.717446931803416   -1.0002187890778855   11.440104095811916
H    3.785670703658721   0.14929576115921386   10.372547158008295
C    5.801177186650881   -2.866585124972718   9.435629363315735
H    6.482880659704395   -3.2026530153925346   8.613315625053913
H    6.34172799287174   -2.993779235068828   10.377314568561513
H    5.01903539958726   -3.529632667058924   9.393512508704069
C    6.318044486549131   -0.43182454361695305   9.331222488588581
H    6.878021906825142   -0.46705257478691703   10.268890156056813
H    7.003609867951441   -0.7476063444582532   8.50766600027907
H    5.901357415791953   0.6244606989304404   9.215766770576485
C    4.717158843871957   -1.6034536302602715   3.640593716246478
C    5.39229339614036   -1.9432266577113093   2.445534429986618
C    4.69045409306865   -2.103805535286451   1.2391538779427946
C    3.3177656323585785   -1.8729330440918135   1.2278619358670781
H    5.25413204612832   -1.6011734822387074   4.580886439896178
H    6.464981641485102   -2.0909763682195   2.454243355844464
H    5.217531817026282   -2.358828745378374   0.30761478119306707
H    2.749321078172331   -2.2573999816997015   0.28729706971754077
