28

H    0.55131   -0.93922   2.1432
C    0.00831   -0.83752   1.20652
C    -1.38671   -0.81495   1.20391
H    -1.90757   -0.47561   -2.13911
C    -2.07028   -0.68397   -0.00525
H    -3.15752   -0.66504   -0.01905
C    -1.36453   -0.57668   -1.20234
H    1.86828   -0.49466   -2.50681
C    0.03064   -0.59861   -1.19982
C    0.78157   -0.48343   -2.4736
C    0.71425   -0.72933   0.00937
H    1.80145   -0.74769   0.02307
C    -2.13789   -0.92929   2.47768
C    -1.0217421454390843   -1.1589346439769057   4.568556934328867
C    -1.5754159813660997   -1.0450184913057015   3.531354472814985
H    -0.521793835891327   -1.2617986078540142   5.50510212219533
C    -5.7265245682599435   -0.5620064357430501   1.8741483834726502
C    -5.575707673372666   -1.1365319134320684   3.1085824372004165
H    -6.626354459236522   -0.2906661924239864   1.3356812537788965
S    -4.184645348150305   -0.25496480107097186   1.1270636358890895
C    -4.210033414765035   -1.3354497522776754   3.4659847086894127
H    -6.400728074828567   -1.4154321967216   3.75598707462786
C    -3.3375385616544957   -0.9099762530207696   2.4993665787509642
H    -3.906367774922024   -1.7787393803840894   4.408780505239234
C    0.2053628524004132   -0.37238703426744607   -3.5203352973968474
H    0.8990175447095806   -0.5014002539289865   -4.324760207497248
H    -0.23643765576130282   0.6001386809455251   -3.582855195329819
H    -0.5602843917926584   -1.116886644117857   -3.586724245966179
