40

H    0.55131   -0.93922   2.1432
C    0.00831   -0.83752   1.20652
C    -1.38671   -0.81495   1.20391
H    -1.90757   -0.47561   -2.13911
C    -2.07028   -0.68397   -0.00525
H    -3.15752   -0.66504   -0.01905
C    -1.36453   -0.57668   -1.20234
H    1.86828   -0.49466   -2.50681
C    0.03064   -0.59861   -1.19982
C    0.78157   -0.48343   -2.4736
C    0.71425   -0.72933   0.00937
H    1.80145   -0.74769   0.02307
C    -2.13789   -0.92929   2.47768
C    -1.4018965154950005   -1.7618280392088705   5.537526056578114
C    -0.26046563579779947   -1.0399684943789667   5.314409769159113
H    -1.7524726303896534   -2.307542794355408   6.405790092157572
O    -2.260096453366388   -1.7998459038780426   4.459526623598883
C    -0.37573041740746915   -0.5638381150821693   3.9818100973404675
H    0.5618446021050871   -0.8626106338479392   5.999488997021086
C    -1.5754159813660997   -1.0450184913057015   3.531354472814985
H    0.34100089501098285   0.049672410433075465   3.446195441658855
C    -5.255347752827313   -0.36806368602211736   1.7267165722913793
C    -5.5158255436506805   -1.0816821621187873   2.865411669479931
H    -5.911622863841021   0.10608148836094156   1.0062445228174215
O    -3.912599910079546   -0.2286745036371186   1.4480875078880748
C    -4.2419197301422225   -1.441648290657706   3.3786332180474647
H    -6.482181637423242   -1.3261347661004652   3.2936432784664875
C    -3.3375385616544957   -0.9099762530207696   2.4993665787509642
H    -4.041349332413329   -2.015841482508272   4.2769960024988976
H    -0.7590538387408634   1.4627487086319337   -2.9701636930030406
C    -0.6285725099477177   0.71516695181545   -3.7416080344895506
C    -1.2952650638260812   0.8436290178225418   -4.952509924982887
H    -1.945389804926936   1.6913334985287563   -5.125087610096445
C    -1.127996806619115   -0.11547730119038369   -5.942132367766204
H    -1.6476429490520472   -0.015314661607409574   -6.886043492229914
C    -0.2940614442709843   -1.2030312872732796   -5.720859630673501
H    -0.16358640592496815   -1.9505979280785433   -6.492322191284021
C    0.3726196771621464   -1.3314893281464757   -4.509950453377497
H    1.0227073835626976   -2.1792431228053553   -4.337472249744859
C    0.2053628524004132   -0.37238703426744607   -3.5203352973968474
