36

H    0.55131   -0.93922   2.1432
C    0.00831   -0.83752   1.20652
C    -1.38671   -0.81495   1.20391
H    -1.90757   -0.47561   -2.13911
C    -2.07028   -0.68397   -0.00525
H    -3.15752   -0.66504   -0.01905
C    -1.36453   -0.57668   -1.20234
H    1.86828   -0.49466   -2.50681
C    0.03064   -0.59861   -1.19982
C    0.78157   -0.48343   -2.4736
C    0.71425   -0.72933   0.00937
H    1.80145   -0.74769   0.02307
C    -2.13789   -0.92929   2.47768
C    -1.765682271268181   -2.109532173376093   4.296165626833959
C    -1.5754159813660997   -1.0450184913057015   3.531354472814985
H    -1.2560524942182272   -2.214396345144489   5.25085620928638
H    -0.9042344039444995   -0.24598843341381404   3.8366327404907894
H    -2.4368751810272924   -2.9085690317784145   3.990892392167627
C    -5.4194610279990325   -0.5050062693956472   1.7306532131896848
C    -5.532895902072351   -1.0717738851087735   2.9703351248601053
H    -6.174791224102318   -0.16483423307500122   1.0321424049984023
N    -4.072341686797499   -0.407909191330843   1.4436692237546946
C    -4.225267215388991   -1.326114026619082   3.45322601065033
H    -6.453586800711427   -1.2922947780747724   3.500638762061142
C    -3.3375385616544957   -0.9099762530207696   2.4993665787509642
H    -3.9843329569523918   -1.7725205469597682   4.412454135138414
H    -3.6834360273971494   -0.027554163738209403   0.5907563738272321
C    -0.20194122939913484   0.4315798340162203   -5.588441373388014
C    -1.1664768880658671   -0.49467048391239443   -5.300977367471667
H    -0.041277578932756825   1.041306040175503   -6.469678693036601
N    0.63868723373834   0.503904060404502   -4.495449531954391
C    -0.9107197467747441   -0.9996396650119519   -4.001993261249334
H    -1.9865616423942238   -0.7976268548026016   -5.943784940354279
C    0.2053628524004132   -0.37238703426744607   -3.5203352973968474
H    -1.5035762969233892   -1.7511139886486133   -3.4908629990258286
H    1.4479791316281774   1.1062605804838166   -4.4206756379284435
