33

H    0.55131   -0.93922   2.1432
C    0.00831   -0.83752   1.20652
C    -1.38671   -0.81495   1.20391
H    -1.90757   -0.47561   -2.13911
C    -2.07028   -0.68397   -0.00525
H    -3.15752   -0.66504   -0.01905
C    -1.36453   -0.57668   -1.20234
H    1.86828   -0.49466   -2.50681
C    0.03064   -0.59861   -1.19982
C    0.78157   -0.48343   -2.4736
C    0.71425   -0.72933   0.00937
H    1.80145   -0.74769   0.02307
C    -2.13789   -0.92929   2.47768
C    -1.2697110523748827   -1.7487672729361057   5.652817230122828
C    -0.1886175592617494   -0.9870457267514422   5.30364479675145
H    -1.5076514463469404   -2.265827360141379   6.5748754190326695
N    -2.1180896270476466   -1.7837189545667465   4.563987424236068
C    -0.38060313888089214   -0.5449604418036217   3.9711781234530497
H    0.6692114033691003   -0.7548574617681758   5.92633350162391
C    -1.5754159813660997   -1.0450184913057015   3.531354472814985
H    0.30661115819040763   0.0799382136781348   3.410210322792537
H    -3.0015181846074372   -2.2753007892647474   4.528221910360625
C    -5.255347752827313   -0.36806368602211736   1.7267165722913793
C    -5.5158255436506805   -1.0816821621187873   2.865411669479931
H    -5.911622863841021   0.10608148836094156   1.0062445228174215
O    -3.912599910079546   -0.2286745036371186   1.4480875078880748
C    -4.2419197301422225   -1.441648290657706   3.3786332180474647
H    -6.482181637423242   -1.3261347661004652   3.2936432784664875
C    -3.3375385616544957   -0.9099762530207696   2.4993665787509642
H    -4.041349332413329   -2.015841482508272   4.2769960024988976
C    -0.3618295569354615   -0.2630766174132173   -4.550706374319584
C    0.2053628524004132   -0.37238703426744607   -3.5203352973968474
H    -0.8739843770398072   -0.16437766173549312   -5.4810837991273935
