22

H    0.55131   -0.93922   2.1432
C    0.00831   -0.83752   1.20652
C    -1.38671   -0.81495   1.20391
H    -1.90757   -0.47561   -2.13911
C    -2.07028   -0.68397   -0.00525
H    -3.15752   -0.66504   -0.01905
C    -1.36453   -0.57668   -1.20234
H    1.86828   -0.49466   -2.50681
C    0.03064   -0.59861   -1.19982
C    0.78157   -0.48343   -2.4736
C    0.71425   -0.72933   0.00937
H    1.80145   -0.74769   0.02307
C    -2.13789   -0.92929   2.47768
H    0.2595   -0.38282   -3.42199
C    -1.765682271268181   -2.109532173376093   4.296165626833959
C    -1.5754159813660997   -1.0450184913057015   3.531354472814985
H    -1.2560524942182272   -2.214396345144489   5.25085620928638
H    -0.9042344039444995   -0.24598843341381404   3.8366327404907894
H    -2.4368751810272924   -2.9085690317784145   3.990892392167627
C    -3.3375385616544957   -0.9099762530207696   2.4993665787509642
H    -3.8929693936864527   -1.835772541582759   2.601152121993281
H    -3.8661774143392447   0.033257561147844394   2.4168668639570257
