36

H    0.55131   -0.93922   2.1432
C    0.00831   -0.83752   1.20652
C    -1.38671   -0.81495   1.20391
H    -1.90757   -0.47561   -2.13911
C    -2.07028   -0.68397   -0.00525
H    -3.15752   -0.66504   -0.01905
C    -1.36453   -0.57668   -1.20234
H    1.86828   -0.49466   -2.50681
C    0.03064   -0.59861   -1.19982
C    0.78157   -0.48343   -2.4736
C    0.71425   -0.72933   0.00937
H    1.80145   -0.74769   0.02307
C    -2.13789   -0.92929   2.47768
C    -1.2697110523748827   -1.7487672729361057   5.652817230122828
C    -0.1886175592617494   -0.9870457267514422   5.30364479675145
H    -1.5076514463469404   -2.265827360141379   6.5748754190326695
N    -2.1180896270476466   -1.7837189545667465   4.563987424236068
C    -0.38060313888089214   -0.5449604418036217   3.9711781234530497
H    0.6692114033691003   -0.7548574617681758   5.92633350162391
C    -1.5754159813660997   -1.0450184913057015   3.531354472814985
H    0.30661115819040763   0.0799382136781348   3.410210322792537
H    -3.0015181846074372   -2.2753007892647474   4.528221910360625
H    -3.4399521154522206   0.8277197501918034   3.752536801712542
C    -4.0030160538330914   0.07633849783610913   3.214563338423309
C    -5.390867468667537   0.09867263606861032   3.239752399768216
H    -5.90972176194056   0.8674510162570923   3.7972630700759016
C    -6.113222531555845   -0.8653194006911423   2.549724359407961
H    -7.1950472720300755   -0.8478797054902086   2.5693194233058185
C    -5.447745039377249   -1.851634151548021   1.8345275997356163
H    -6.010829105878219   -2.6030015681216705   1.2965522844430164
C    -4.0598928325745405   -1.8739652907200879   1.8093523361594703
H    -3.5411397930199264   -2.642799463683894   1.251823366924768
C    -3.3375385616544957   -0.9099762530207696   2.4993665787509642
C    0.2053628524004132   -0.37238703426744607   -3.5203352973968474
H    -0.49656151518914193   -1.1361071691704347   -3.836557073414509
H    0.3868346234831702   0.49153766307665975   -4.150142713452726
