28

H    0.55131   -0.93922   2.1432
C    0.00831   -0.83752   1.20652
C    -1.38671   -0.81495   1.20391
H    -1.90757   -0.47561   -2.13911
C    -2.07028   -0.68397   -0.00525
H    -3.15752   -0.66504   -0.01905
C    -1.36453   -0.57668   -1.20234
H    1.86828   -0.49466   -2.50681
C    0.03064   -0.59861   -1.19982
C    0.78157   -0.48343   -2.4736
C    0.71425   -0.72933   0.00937
H    1.80145   -0.74769   0.02307
C    -2.13789   -0.92929   2.47768
C    -1.0217421454390843   -1.1589346439769057   4.568556934328867
C    -1.5754159813660997   -1.0450184913057015   3.531354472814985
H    -0.521793835891327   -1.2617986078540142   5.50510212219533
C    -3.3375385616544957   -0.9099762530207696   2.4993665787509642
H    -3.7185099252578366   -1.5943845836973993   1.770431234557365
H    -3.682451744928564   0.07789523460498282   2.27565356317111
H    -3.6813398356533784   -1.1962128220238095   3.47136049573919
C    -0.18191201944721108   0.5704485823922705   -5.399092474387343
C    -1.0569219372066139   -0.4804243511787597   -5.337853151967016
H    -0.012843320893251742   1.3254376476016847   -6.158037748029314
O    0.6312316127729689   0.687281035827561   -4.292212679601992
C    -0.7996644811509841   -1.106699618697751   -4.089892461921932
H    -1.792710988789424   -0.780363940444061   -6.07652371511559
C    0.2053628524004132   -0.37238703426744607   -3.5203352973968474
H    -1.299806177086529   -1.9803278452030504   -3.6854001822182
