38

H    0.55131   -0.93922   2.1432
C    0.00831   -0.83752   1.20652
C    -1.38671   -0.81495   1.20391
H    -1.90757   -0.47561   -2.13911
C    -2.07028   -0.68397   -0.00525
H    -3.15752   -0.66504   -0.01905
C    -1.36453   -0.57668   -1.20234
H    1.86828   -0.49466   -2.50681
C    0.03064   -0.59861   -1.19982
C    0.78157   -0.48343   -2.4736
C    0.71425   -0.72933   0.00937
H    1.80145   -0.74769   0.02307
C    -2.13789   -0.92929   2.47768
C    -1.4018965154950005   -1.7618280392088705   5.537526056578114
C    -0.26046563579779947   -1.0399684943789667   5.314409769159113
H    -1.7524726303896534   -2.307542794355408   6.405790092157572
O    -2.260096453366388   -1.7998459038780426   4.459526623598883
C    -0.37573041740746915   -0.5638381150821693   3.9818100973404675
H    0.5618446021050871   -0.8626106338479392   5.999488997021086
C    -1.5754159813660997   -1.0450184913057015   3.531354472814985
H    0.34100089501098285   0.049672410433075465   3.446195441658855
C    -5.7265245682599435   -0.5620064357430501   1.8741483834726502
C    -5.575707673372666   -1.1365319134320684   3.1085824372004165
H    -6.626354459236522   -0.2906661924239864   1.3356812537788965
S    -4.184645348150305   -0.25496480107097186   1.1270636358890895
C    -4.210033414765035   -1.3354497522776754   3.4659847086894127
H    -6.400728074828567   -1.4154321967216   3.75598707462786
C    -3.3375385616544957   -0.9099762530207696   2.4993665787509642
H    -3.906367774922024   -1.7787393803840894   4.408780505239234
C    -0.20194122939913484   0.4315798340162203   -5.588441373388014
C    -1.1664768880658671   -0.49467048391239443   -5.300977367471667
H    -0.041277578932756825   1.041306040175503   -6.469678693036601
N    0.63868723373834   0.503904060404502   -4.495449531954391
C    -0.9107197467747441   -0.9996396650119519   -4.001993261249334
H    -1.9865616423942238   -0.7976268548026016   -5.943784940354279
C    0.2053628524004132   -0.37238703426744607   -3.5203352973968474
H    -1.5035762969233892   -1.7511139886486133   -3.4908629990258286
H    1.4479791316281774   1.1062605804838166   -4.4206756379284435
