33

H    0.55131   -0.93922   2.1432
C    0.00831   -0.83752   1.20652
C    -1.38671   -0.81495   1.20391
H    -1.90757   -0.47561   -2.13911
C    -2.07028   -0.68397   -0.00525
H    -3.15752   -0.66504   -0.01905
C    -1.36453   -0.57668   -1.20234
H    1.86828   -0.49466   -2.50681
C    0.03064   -0.59861   -1.19982
C    0.78157   -0.48343   -2.4736
C    0.71425   -0.72933   0.00937
H    1.80145   -0.74769   0.02307
C    -2.13789   -0.92929   2.47768
C    -1.0505716696858867   -1.6129645096423277   5.902263727500305
C    -0.02000657837814024   -0.9732910810653571   5.2655485708953735
H    -1.1226955325595203   -1.9798714545991112   6.9188480340123935
S    -2.4132472609372257   -1.828067325971976   4.840827094292807
C    -0.3200402836546232   -0.6486269429753311   3.910209556465285
H    0.9296406483412254   -0.7331078308966323   5.732516392616105
C    -1.5754159813660997   -1.0450184913057015   3.531354472814985
H    0.38163776347869427   -0.14010562169480656   3.2570354501396555
C    -3.3375385616544957   -0.9099762530207696   2.4993665787509642
H    -3.7185099252578366   -1.5943845836973993   1.770431234557365
H    -3.682451744928564   0.07789523460498282   2.27565356317111
H    -3.6813398356533784   -1.1962128220238095   3.47136049573919
C    -0.42290856589055503   0.3189755637596156   -5.832591275485763
C    -1.3115955681472986   -0.5645948886725097   -5.279245668374969
H    -0.4242101316934712   0.792510281474293   -6.806772668833707
S    0.8765565777510772   0.6811029714590116   -4.732565913981153
C    -0.9524360235236367   -0.9598130719132758   -3.957437104307694
H    -2.199291031976677   -0.9325240355109305   -5.783429862696346
C    0.2053628524004132   -0.37238703426744607   -3.5203352973968474
H    -1.5433078644131348   -1.6543703607499158   -3.3691828485918918
