25

H    0.55131   -0.93922   2.1432
C    0.00831   -0.83752   1.20652
C    -1.38671   -0.81495   1.20391
H    -1.90757   -0.47561   -2.13911
C    -2.07028   -0.68397   -0.00525
H    -3.15752   -0.66504   -0.01905
C    -1.36453   -0.57668   -1.20234
H    1.86828   -0.49466   -2.50681
C    0.03064   -0.59861   -1.19982
C    0.78157   -0.48343   -2.4736
C    0.71425   -0.72933   0.00937
H    1.80145   -0.74769   0.02307
C    -2.13789   -0.92929   2.47768
C    -1.5754159813660997   -1.0450184913057015   3.531354472814985
H    -1.6820174528913656   -2.049550618322547   3.8841320387962415
H    -2.0057493274410203   -0.3700797645153414   4.241406315805742
H    -0.5369378411405421   -0.8186075000664692   3.408049649633833
C    -4.51842952929439   -0.8909605223859741   2.5207084890436198
C    -3.3375385616544957   -0.9099762530207696   2.4993665787509642
H    -5.584722141142884   -0.8737939504128858   2.539984664079395
C    -1.0013640529757266   -0.8893001576645765   -3.6962265717715286
C    0.2053628524004132   -0.37238703426744607   -3.5203352973968474
H    -1.5234473187503188   -0.7886932598541571   -4.644625447831122
H    0.7079302784772048   0.16713273289839498   -4.319380331849766
H    -1.503937329171099   -1.4288326203270754   -2.8971793924463087
