38

H    0.55131   -0.93922   2.1432
C    0.00831   -0.83752   1.20652
C    -1.38671   -0.81495   1.20391
H    -1.90757   -0.47561   -2.13911
C    -2.07028   -0.68397   -0.00525
H    -3.15752   -0.66504   -0.01905
C    -1.36453   -0.57668   -1.20234
H    1.86828   -0.49466   -2.50681
C    0.03064   -0.59861   -1.19982
C    0.78157   -0.48343   -2.4736
C    0.71425   -0.72933   0.00937
H    1.80145   -0.74769   0.02307
C    -2.13789   -0.92929   2.47768
H    -0.4650432328125629   0.7770401103264013   3.312982416937566
C    -0.6664178661098579   -0.07973072719966845   3.94260311333283
C    -0.015612387011079365   -0.21361519584475885   5.16153380440211
H    0.6930183913750863   0.5387615142410431   5.482189116293682
C    -0.2738313485790682   -1.3127984412384746   5.969206597823114
H    0.23343267994198147   -1.4171344995730033   6.9193803034684604
C    -1.18282946383531   -2.2780862053445077   5.557957957305269
H    -1.3841970417339793   -3.1348458210153085   6.187599252033343
C    -1.8336231003675296   -2.1441974163855537   4.339020856204366
H    -2.542222603421918   -2.8966425425986895   4.0184552164218506
C    -1.5754159813660997   -1.0450184913057015   3.531354472814985
C    -5.4194610279990325   -0.5050062693956472   1.7306532131896848
C    -5.532895902072351   -1.0717738851087735   2.9703351248601053
H    -6.174791224102318   -0.16483423307500122   1.0321424049984023
N    -4.072341686797499   -0.407909191330843   1.4436692237546946
C    -4.225267215388991   -1.326114026619082   3.45322601065033
H    -6.453586800711427   -1.2922947780747724   3.500638762061142
C    -3.3375385616544957   -0.9099762530207696   2.4993665787509642
H    -3.9843329569523918   -1.7725205469597682   4.412454135138414
H    -3.6834360273971494   -0.027554163738209403   0.5907563738272321
C    -1.0013640529757266   -0.8893001576645765   -3.6962265717715286
C    0.2053628524004132   -0.37238703426744607   -3.5203352973968474
H    -1.5234473187503188   -0.7886932598541571   -4.644625447831122
H    0.7079302784772048   0.16713273289839498   -4.319380331849766
H    -1.503937329171099   -1.4288326203270754   -2.8971793924463087
