33

H    0.55131   -0.93922   2.1432
C    0.00831   -0.83752   1.20652
C    -1.38671   -0.81495   1.20391
H    -1.90757   -0.47561   -2.13911
C    -2.07028   -0.68397   -0.00525
H    -3.15752   -0.66504   -0.01905
C    -1.36453   -0.57668   -1.20234
H    1.86828   -0.49466   -2.50681
C    0.03064   -0.59861   -1.19982
C    0.78157   -0.48343   -2.4736
C    0.71425   -0.72933   0.00937
H    1.80145   -0.74769   0.02307
C    -2.13789   -0.92929   2.47768
C    -1.4018965154950005   -1.7618280392088705   5.537526056578114
C    -0.26046563579779947   -1.0399684943789667   5.314409769159113
H    -1.7524726303896534   -2.307542794355408   6.405790092157572
O    -2.260096453366388   -1.7998459038780426   4.459526623598883
C    -0.37573041740746915   -0.5638381150821693   3.9818100973404675
H    0.5618446021050871   -0.8626106338479392   5.999488997021086
C    -1.5754159813660997   -1.0450184913057015   3.531354472814985
H    0.34100089501098285   0.049672410433075465   3.446195441658855
C    -5.4194610279990325   -0.5050062693956472   1.7306532131896848
C    -5.532895902072351   -1.0717738851087735   2.9703351248601053
H    -6.174791224102318   -0.16483423307500122   1.0321424049984023
N    -4.072341686797499   -0.407909191330843   1.4436692237546946
C    -4.225267215388991   -1.326114026619082   3.45322601065033
H    -6.453586800711427   -1.2922947780747724   3.500638762061142
C    -3.3375385616544957   -0.9099762530207696   2.4993665787509642
H    -3.9843329569523918   -1.7725205469597682   4.412454135138414
H    -3.6834360273971494   -0.027554163738209403   0.5907563738272321
C    0.2053628524004132   -0.37238703426744607   -3.5203352973968474
H    -0.49656151518914193   -1.1361071691704347   -3.836557073414509
H    0.3868346234831702   0.49153766307665975   -4.150142713452726
