46

H    0.55131   -0.93922   2.1432
C    0.00831   -0.83752   1.20652
C    -1.38671   -0.81495   1.20391
H    -1.90757   -0.47561   -2.13911
C    -2.07028   -0.68397   -0.00525
H    -3.15752   -0.66504   -0.01905
C    -1.36453   -0.57668   -1.20234
H    1.86828   -0.49466   -2.50681
C    0.03064   -0.59861   -1.19982
C    0.78157   -0.48343   -2.4736
C    0.71425   -0.72933   0.00937
H    1.80145   -0.74769   0.02307
C    -2.13789   -0.92929   2.47768
H    -0.4650432328125629   0.7770401103264013   3.312982416937566
C    -0.6664178661098579   -0.07973072719966845   3.94260311333283
C    -0.015612387011079365   -0.21361519584475885   5.16153380440211
H    0.6930183913750863   0.5387615142410431   5.482189116293682
C    -0.2738313485790682   -1.3127984412384746   5.969206597823114
H    0.23343267994198147   -1.4171344995730033   6.9193803034684604
C    -1.18282946383531   -2.2780862053445077   5.557957957305269
H    -1.3841970417339793   -3.1348458210153085   6.187599252033343
C    -1.8336231003675296   -2.1441974163855537   4.339020856204366
H    -2.542222603421918   -2.8966425425986895   4.0184552164218506
C    -1.5754159813660997   -1.0450184913057015   3.531354472814985
H    -3.4399521154522206   0.8277197501918034   3.752536801712542
C    -4.0030160538330914   0.07633849783610913   3.214563338423309
C    -5.390867468667537   0.09867263606861032   3.239752399768216
H    -5.90972176194056   0.8674510162570923   3.7972630700759016
C    -6.113222531555845   -0.8653194006911423   2.549724359407961
H    -7.1950472720300755   -0.8478797054902086   2.5693194233058185
C    -5.447745039377249   -1.851634151548021   1.8345275997356163
H    -6.010829105878219   -2.6030015681216705   1.2965522844430164
C    -4.0598928325745405   -1.8739652907200879   1.8093523361594703
H    -3.5411397930199264   -2.642799463683894   1.251823366924768
C    -3.3375385616544957   -0.9099762530207696   2.4993665787509642
H    -0.7590538387408634   1.4627487086319337   -2.9701636930030406
C    -0.6285725099477177   0.71516695181545   -3.7416080344895506
C    -1.2952650638260812   0.8436290178225418   -4.952509924982887
H    -1.945389804926936   1.6913334985287563   -5.125087610096445
C    -1.127996806619115   -0.11547730119038369   -5.942132367766204
H    -1.6476429490520472   -0.015314661607409574   -6.886043492229914
C    -0.2940614442709843   -1.2030312872732796   -5.720859630673501
H    -0.16358640592496815   -1.9505979280785433   -6.492322191284021
C    0.3726196771621464   -1.3314893281464757   -4.509950453377497
H    1.0227073835626976   -2.1792431228053553   -4.337472249744859
C    0.2053628524004132   -0.37238703426744607   -3.5203352973968474
