106
 help
 C       8.33532560752510        9.59417150256328        0.14976894657430      
 C       6.48515073458182       11.38165288491031       -0.22700447444009      
 C       3.96070472367568       10.70191573326659       -0.20172429833676      
 C       3.23486260690442        8.17989190909905        0.04470758966048      
 C       5.13151530464269        6.31420311621689        0.31207885621574      
 C       7.70232199727874        7.05125256910741        0.54059262826280      
 H      10.29865233429827       10.13280596626857        0.04644804696136      
 H       7.00296046102889       13.32984883492652       -0.55022410514193      
 H       2.56566142838698       12.16174614307498       -0.46431520912325      
 C      10.92045404411201        0.77894604554873        0.47577224884214      
 C       8.98120577800682        2.61997360171694        0.61197170238939      
 C       9.58442203854811        5.17423571169164        0.98630453140630      
 C      12.11723677622134        5.79562087190573        1.81524318945893      
 C      14.04204149220623        3.98845473167066        1.29635436942924      
 C      13.49655172133473        1.56058479803571        0.54773171586388      
 H      15.96758685067598        4.55492126860015        1.65431887837929      
 C      19.64768652933262       -1.22869857379414       -1.58101738562153      
 C      17.87501646581778        0.49358050313436       -0.77224570562082      
 C      15.41916722951789       -0.25373558347542       -0.15022024788476      
 C      14.76868220575384       -2.84175499347506       -0.31785150639348      
 C      16.57816614502823       -4.53994962255699       -1.26776466500954      
 C      18.97633790672943       -3.75585440677230       -1.87331450839324      
 H      21.53380687952946       -0.61096991389319       -2.05660756697981      
 H      18.38103180674476        2.46674685212422       -0.67927168094444      
 H      16.03253886858360       -6.47369161254222       -1.61926426512058      
 H      20.33186713828595       -5.09091010935190       -2.61285840292384      
 C       0.61513410777631        7.41281842314629       -0.02269084521000      
 C      -1.35247795678564        9.17773187605314       -0.04867879287730      
 C      -3.83150010492162        8.44413486838162       -0.22627628154666      
 C      -4.50176516441169        5.89622250388360       -0.38492842978767      
 C      -2.58025700239305        4.06278048722066       -0.20135475379511      
 C      -0.01342607315533        4.81988792543347       -0.03284451980974      
 H      -0.94717777456060       11.16896464863067        0.08847984928034      
 H      -5.27999514048898        9.87771932184472       -0.21360842208837      
 C       3.21774669286789       -1.48319088758033        0.07509053964917      
 C       1.29739429940463        0.36138159562577        0.01754145976967      
 C       1.92107014441512        2.95575850456691        0.10235225646217      
 C       4.48136826010917        3.70578137606538        0.30311874003170      
 C       6.40619376378012        1.86526577425103        0.35463657735757      
 C       5.78923741990809       -0.73381122963909        0.22014275838341      
 C      12.25552993751084       -3.63142480909030        0.30172542182697      
 C      10.30659266089666       -1.82014899766903        0.33354630721662      
 C       7.72634994614467       -2.57154446842823        0.27886856267240      
 C       7.12311180676524       -5.19357656408620        0.23806985966369      
 C       9.03175296349718       -6.92102261432803        0.61545017936429      
 C      11.61612873811933       -6.21949628319379        0.86342698437062      
 H       8.61045989608209       -8.89923523341446        0.86099324050072      
 C      -7.10405224103263        5.12105521365479       -0.69076573298382      
 C      -8.97753233799451        6.77678596624727       -1.39930071031743      
 C     -11.54157558736317        6.01365198456644       -1.69548878498866      
 C     -12.23091676598331        3.57769962418895       -0.67009390946850      
 C     -10.30462690607267        1.77785894465049       -0.32655366930388      
 C      -7.72171313097258        2.51677439315627       -0.41363294669702      
 H      -8.52755049565086        8.69462096206514       -1.92181583179363      
 C      -4.48632286825165       -3.73333109733432       -0.18720091044293      
 C      -6.41612072661614       -1.89885100945039       -0.12659004363029      
 C      -5.78507763906261        0.69485349924528       -0.22313153621977      
 C      -3.21058456784373        1.44558466901680       -0.19031067275805      
 C      -1.28827182511940       -0.39271126558612       -0.11148935103447      
 C      -1.91882093646454       -2.98425715474175       -0.18740274217131      
 C       4.51065849125068       -5.94318415856935       -0.05858499787276      
 C       2.58860381240343       -4.09909872272924       -0.07612526710272      
 C       0.01874281921986       -4.84717521618894       -0.26090900097496      
 C      -0.61416675838582       -7.42400019860662       -0.54132022245581      
 C       1.34761027251186       -9.19264352252453       -0.59932757155795      
 C       3.82509611530457       -8.47641814995567       -0.35399234720188      
 H       0.93693207197541      -11.17625908012799       -0.81101031760846      
 H       5.25880979743265       -9.92205319830460       -0.42037106159261      
 C     -14.77575079509275        2.94611763557507       -0.02007748358339      
 C     -16.61461928258045        4.82787223740401        0.37317574433195      
 C     -19.07713480010601        4.22346217471590        0.90897350846901      
 C     -19.79009717790212        1.69673560437824        1.08531232457935      
 C     -17.99402502577702       -0.17014884621900        0.87693515329143      
 C     -15.45473121755715        0.38994316594578        0.39158787272363      
 H     -16.04598432257690        6.78590215893544        0.33245756441931      
 H     -20.45499211435807        5.69873003936133        1.21072324612182      
 H     -21.73609852540129        1.20598823164854        1.45718403945341      
 H     -18.58375466785117       -2.10510504311118        1.12116622344018      
 C     -12.12470408306436       -5.92916943307634        1.01661283433497      
 C     -14.03166988875012       -4.04663899666862        0.83132065343884      
 C     -13.50818954927354       -1.53816110740848        0.37149182592652      
 C     -10.93387159741365       -0.79072813333679        0.10311309648356      
 C      -8.99744587296233       -2.64961124793764        0.09012480268788      
 C      -9.59873800093000       -5.22679831766130        0.25418867655262      
 H     -15.93503985095509       -4.66013171191089        1.21847522318769      
 C      -3.23193915772521       -8.17375285046226       -0.74542044823125      
 C      -5.13602598478573       -6.32987625872148       -0.40085656869376      
 C      -7.71531555541663       -7.06160856477934       -0.35270146182648      
 C      -8.33985195272208       -9.53875647446269       -1.05164553058182      
 C      -6.47826150847992      -11.29009538721297       -1.53536885248497      
 C      -3.95460902573555      -10.64811979338122       -1.29518411018719      
 H     -10.29798660899278      -10.04450727315909       -1.30926453281271      
 H      -6.98757430252253      -13.18409283504056       -2.10230834840690      
 H      -2.55490106076161      -12.08857502773946       -1.63086163931357      
 C     -12.70540458202005       -8.19294793443183        2.12440114755079      
 H     -14.62032171615526       -8.60257237238792        2.67475682688616      
 H     -11.28998432386315       -9.55045029779097        2.64455726128195      
 C     -13.14334901901694        7.48667275901990       -3.08732064611758      
 H     -14.98997048139660        6.86179024511574       -3.65078614765360      
 H     -12.51272068743042        9.27708084385472       -3.81933164479123      
 C      13.30723819936814       -7.93511031364825        1.80506626556052      
 H      12.71705298536324       -9.83831471223577        2.21357955744169      
 H      15.20315845117015       -7.42830481670967        2.32085182289655      
 C      12.68824458242584        7.88924757814558        3.21459463972309      
 H      14.60598119308973        8.24065337372088        3.79518120078246      
 H      11.26542394376733        9.14865498747217        3.92749474218765      
