24

C    0.68103   -0.09218   1.2062
C    -0.70601   -0.03513   1.19479
C    -1.38702   0.05706   -0.01142
C    -0.68101   0.09219   -1.2062
C    0.70603   0.03513   -1.19478
C    1.38704   -0.05705   0.01142
H    1.21186   -0.16415   2.14645
H    -1.25646   -0.06255   2.12608
C    2.7740507721474907   -0.11409875093839379   0.022823655694193694
C    3.480070443054662   -0.07896735281534564   -1.1719846391205222
C    2.7990512669000918   0.013203889248542246   -2.378190891859311
C    1.412040494752601   0.07025264018693606   -2.3895945475535045
H    3.304929152215064   -0.18583923753129103   0.9630638805624149
H    4.561272493543597   -0.12338877073001644   -1.1632104355115391
H    3.3493898811703238   0.04053875296063169   -3.3095410373303693
H    0.8811803619729295   0.14198336402304731   -3.3298478768127517
C    -0.9365187972859625   -0.8518519809559758   -2.191432702513573
C    -1.8980508943211958   -1.8310417455368377   -1.9818896675276727
C    -2.604057859842119   -1.866173843511134   -0.7870942538154078
C    -2.3485490625561565   -0.9221318625551582   0.198138448698165
H    -0.3862674954191793   -0.8244165765693583   -3.122830059005448
H    -2.097335933435408   -2.566962788112724   -2.749843972990744
H    -3.353533153103194   -2.6294787390767667   -0.6237378955162495
H    -2.8988058659908   -0.9495910622667716   1.129533930287531
