464

C    1.5435194665274121   2.9685923610053795   -14.975508085539744
C    0.1564794665274114   3.0256423610053793   -14.986918085539745
C    -0.5245305334725874   3.1178323610053793   -16.193128085539744
C    0.18147946652741176   3.1529623610053794   -17.387908085539745
C    1.5685194665274125   3.0959023610053795   -17.376488085539744
C    2.249529466527413   3.003722361005379   -16.170288085539745
C    3.6581460186041177   3.0783993599412787   -18.557861973696554
C    2.2721347525949582   3.131556696682817   -18.571385913797027
C    3.6352915911499544   2.9433795399507092   -16.156771560403378
C    4.324979810720473   2.5596536195256165   -17.350407297268422
H    4.211030046413226   3.2199184368517697   -19.48847686100967
C    6.689608712953476   2.101144411871407   -17.327152956460168
C    5.516602497116915   2.328361232841176   -17.338690592784488
C    3.6446490267586427   2.6823304390603244   -13.769769798578553
C    4.327413342452822   2.623961431575608   -12.562421169603983
C    5.693006161223611   2.8708284447031187   -12.524617579333256
C    6.375824780566827   3.176067263837434   -13.694134546772169
C    5.692959522129668   3.2318479945171026   -14.901476317832348
C    4.327402926263371   2.985704020403341   -14.939286095401721
H    3.795236717846338   2.386071602665621   -11.65069500869658
H    6.22522592542874   2.8252801772268574   -11.583501031548808
H    7.440333933462906   3.3683864407702098   -13.664680173661482
H    6.221709871373731   3.3682574477498854   -15.813103916435301
C    -2.5902472142789383   3.06878906161836   -17.414970586149682
C    -1.9109099749455787   3.073949618210995   -16.20562774277557
C    -0.4973234730416145   3.140638148874336   -18.59755071936627
C    -1.8513610816715493   2.678816049092297   -18.62892263531706
H    -3.6790258086998566   3.1480389920859997   -17.420722688070754
C    -2.988908011541792   2.303787191285787   -20.718798622379666
C    -2.424600690438341   2.489593280042794   -19.68210313772439
C    1.5745969070720136   3.0868670997889573   -19.810096066304574
C    2.2787644235433238   3.155821050829263   -21.004524057055555
C    1.6132540301102871   3.4508041436589583   -22.18659726606735
C    0.24360515113285075   3.676838160355107   -22.17424767628286
C    -0.46035606759543946   3.6053042405791675   -20.979922718789968
C    0.20508898871537973   3.311041767343876   -19.79782554610777
H    3.3464386072947825   2.979681445071761   -21.014260565339868
H    2.1621428760177785   3.504503493150596   -23.11765596093942
H    -0.27518010088496325   3.9066641365461403   -23.095700792544143
H    -1.5203550324080322   3.6802923927267455   -20.974600977975562
C    1.5029394586824445   2.4458333580834655   -12.632952638465529
C    2.2178479257749313   2.6769258633593154   -13.79894490541862
C    -0.5590494920579907   2.7875981527318197   -13.822652702185895
C    0.07732811540393669   2.0904459994405604   -12.747160205501618
H    2.037589828495939   2.3285779465872882   -11.688414329894627
C    -1.181018075458299   1.338768874844627   -10.835671867204088
C    -0.5568210542104541   1.7114217851688729   -11.78393979889162
C    -2.6383654429266077   2.999896138499227   -15.004763673006366
C    -4.023707099702076   3.0897975193167015   -15.00808021285616
C    -4.717750017939023   3.1577087549440703   -13.807701659229467
C    -4.026470086818231   3.1357281223587816   -12.604027762621016
C    -2.6413544712296524   3.0433260113324403   -12.601347357263435
C    -1.947248784089405   2.9761114681928893   -13.801539321932594
H    -4.562670942164425   3.1069806068804464   -15.94630771244212
H    -5.797621499911871   3.2277357077241584   -13.810287563417422
H    -4.567491716879422   3.1885479444318117   -11.668325018843333
H    -2.1113746488582805   2.927991893342438   -11.687526380048396
C    -4.532427478069202   -0.6648051697195925   -5.743290536839921
C    -3.1453874780692024   -0.7218551697195923   -5.731880536839921
C    -2.4643774780692027   -0.8140451697195923   -4.525670536839921
C    -3.170387478069202   -0.8491751697195924   -3.330890536839921
C    -4.557427478069203   -0.7921151697195925   -3.3423105368399213
C    -5.238437478069202   -0.6999351697195926   -4.548510536839921
C    -6.647054030145907   -0.7746121686554921   -2.160936648683114
C    -5.261042764136747   -0.8277695053970304   -2.147412708582639
C    -6.6241996026917445   -0.6395923486649224   -4.562027061976286
C    -7.313887822262263   -0.2558664282398295   -3.3683913251112445
H    -7.199938057955016   -0.9161312455659827   -1.2303217613699964
C    -9.678516724495264   0.20264277941438014   -3.391645665919498
C    -8.505510508658706   -0.024574041555389003   -3.3801080295951795
C    -6.633557038300433   -0.3785432477745374   -6.949028823801113
C    -7.316321353994612   -0.32017424028982133   -8.156377452775683
C    -8.681914172765401   -0.5670412534173319   -8.19418104304641
C    -9.364732792108615   -0.8722800725516469   -7.024664075607497
C    -8.681867533671458   -0.9280608032313156   -5.817322304547318
C    -7.316310937805161   -0.6819168291175539   -5.779512526977944
H    -6.784144729388128   -0.082284411379834   -9.068103613683085
H    -9.21413393697053   -0.5214929859410704   -9.135297590830858
H    -10.429241945004694   -1.0645992494844227   -7.054118448718184
H    -9.210617882915521   -1.0644702564640984   -4.905694705944365
C    -0.39866079726285264   -0.7650018703325729   -3.3038280362299837
C    -1.0779980365962114   -0.7701624269252085   -4.513170879604099
C    -2.4915845385001756   -0.8368509575885494   -2.121247903013394
C    -1.1375469298702416   -0.3750288578065104   -2.089875987062605
H    0.6901177971580665   -0.8442518008002127   -3.298075934308911
C    0.0   0.0   0.0
C    -0.564307321103449   -0.18580608875700722   -1.0366954846552758
C    -4.563504918613804   -0.7830799085031708   -0.9087025560750916
C    -5.267672435085114   -0.852033859543476   0.2857254346758875
C    -4.602162041652079   -1.1470169523731713   1.4677986436876829
C    -3.232513162674641   -1.37305096906932   1.4554490539031946
C    -2.5285519439463506   -1.3015170492933805   0.26112409641030254
C    -3.19399700025717   -1.0072545760580889   -0.9209730762718955
H    -6.335346618836573   -0.6758942537859745   0.29546194296020367
H    -5.151050887559569   -1.200716301864809   2.398857338559754
H    -2.713727910656827   -1.6028769452603533   2.3769021701644775
H    -1.468552979133758   -1.3765052014409584   0.2558023555958968
C    -4.491847470224235   -0.14204616679767867   -8.085845983914137
C    -5.206755937316721   -0.3731386720735286   -6.919853716961045
C    -2.4298585194837994   -0.48381096144603286   -6.896145920193771
C    -3.066236126945727   0.21334119184522637   -7.971638416878047
H    -5.026497840037731   -0.024790755301501433   -9.030384292485039
C    -1.807889936083491   0.9650183164411599   -9.883126755175578
C    -2.432086957331337   0.5923654061169139   -8.934858823488046
C    -0.3505425686151824   -0.6961089472134403   -5.7140349493733
C    1.034799088160284   -0.7860103280309145   -5.710718409523504
C    1.7288420063972332   -0.8539215636582833   -6.911096963150198
C    1.0375620752764405   -0.8319409310729946   -8.11477085975865
C    -0.3475535403121377   -0.7395388200466533   -8.11745126511623
C    -1.041659227452385   -0.6723242769071023   -6.917259300447072
H    1.5737629306226353   -0.8031934155946594   -4.772490909937545
H    2.8087134883700813   -0.9239485164383714   -6.908511058962243
H    1.578583705337632   -0.8847607531460246   -9.050473603536332
H    -0.8775333626835096   -0.624204702056651   -9.03127224233127
C    -16.0199588333045   1.2083954213709085   -1.0580386067228322
C    -17.406909344771925   1.2655087998622734   -1.077304974765386
C    -18.079277845919503   1.4023881191015473   -2.2841193063546137
C    -17.36471597383488   1.482143317474448   -3.471647800621348
C    -15.97776552924445   1.4250195735834583   -3.4523718120789058
C    -15.305396961219877   1.2881506197438093   -2.2455671009895664
C    -13.879693060944394   1.4520002130155476   -4.618499467469217
C    -15.265597724201292   1.505302575441317   -4.640015773663009
C    -13.91973778657487   1.227667973901432   -2.2243275196141457
C    -13.221296052288649   0.8888113065172055   -3.4264244363884537
H    -13.32020513420763   1.628199415174477   -5.539194621588745
C    -10.856666403384116   0.43030297113007476   -3.4032288969914277
C    -12.029672858751347   0.657519595557478   -3.4147460331538255
C    -13.927407200394615   0.8779258901765044   0.1513057139880205
C    -13.253309525016743   0.7748021230672234   1.360529670256752
C    -11.888147318130198   1.0204073122769262   1.4173312565737488
C    -11.1970928732666   1.3691380176952443   0.2649369707112652
C    -11.871290243824939   1.4696750240190686   -0.9443772230092913
C    -13.236416545821111   1.224792611226562   -1.001157812029545
H    -13.791906629877774   0.5030070922825798   2.2589108492867984
H    -11.362683091208345   0.9399731811885516   2.359907818650192
H    -10.132919229049413   1.5604741921575747   0.3091962726330566
H    -11.336069289846401   1.6400555837205097   -1.846462775819944
C    -20.13613410061717   1.3983927725791043   -3.521784903998163
C    -19.465509513689888   1.358679469535244   -2.308227593493397
C    -18.034800537956087   1.5147092186864628   -4.685767546588656
C    -19.388346578241972   1.0540612077480027   -4.744061812058182
H    -21.224882716796582   1.4775492430726798   -3.5324230321815744
C    -20.510654973264558   0.7568415856075521   -6.854589155122536
C    -19.953906704436744   0.9040501012443292   -5.8076578291722525
C    -15.954191594389801   1.5066034694950148   -5.884522036221004
C    -15.24149160139882   1.6201456302730146   -7.070452751492085
C    -15.898635791341738   1.9587823219273035   -8.245485893567626
C    -17.268450909221517   2.183881924381322   -8.234593118033501
C    -17.98094257916755   2.0677654680495583   -7.0488599304787325
C    -17.3238642572322   1.7298479888786247   -5.873776483271817
H    -14.173687071560696   1.4447384664520622   -7.07905135002874
H    -15.343095839682636   2.0472382907988003   -9.169922901846704
H    -17.78071445399854   2.447736961991591   -9.150562845879975
H    -19.040989777595875   2.1422574777050283   -7.048383597274414
C    -16.077114061184528   0.5987682111036778   1.2630770041887533
C    -15.353958860222033   0.8732802285759237   0.11167545108322763
C    -18.13066913262452   0.9841140536483246   0.07210765124571505
C    -17.50168979874821   0.2475487782474824   1.1254538845289508
H    -15.549208030208336   0.4465498202032558   2.206420658301865
C    -18.773366735297106   -0.5750703345465427   2.998520051929705
C    -18.142556356324672   -0.16722374159258235   2.069303389589181
C    -20.201540564590168   1.2397962746942497   -1.116222992868638
C    -21.586867377499225   1.329437301026387   -1.1261664097977193
C    -22.28955424385486   1.3524462104746835   0.07087909402555281
C    -21.60693295663012   1.2858243844659518   1.27784705187808
C    -20.221826356214514   1.193707994993857   1.2870600599689288
C    -19.51907841210954   1.1713883621528736   0.09022740131009321
H    -22.119082089689016   1.3814167872888714   -2.066960625392155
H    -23.369414124752076   1.4222702775869112   0.06312565124678304
H    -22.154692540425373   1.3036426356288813   2.210947213059571
H    -19.698370924066303   1.0445521918677438   2.1997463731345785
C    -22.160289980590562   -2.7676394450474304   7.988509348107595
C    -20.773339469123137   -2.8247528235387955   8.007775716150151
C    -20.10097096797556   -2.96163214277807   9.214590047739376
C    -20.81553284006018   -3.0413873411509704   10.402118542006113
C    -22.20248328465061   -2.984263597259981   10.382842553463668
C    -22.874851852675185   -2.8473946434203317   9.17603784237433
C    -24.300555752950665   -3.0112442366920704   11.54897020885398
C    -22.91465108969377   -3.0645465991178398   11.570486515047772
C    -24.26051102732019   -2.7869119975779544   9.15479826099891
C    -24.95895276160641   -2.448055330193728   10.356895177773218
H    -24.86004367968743   -3.1874434388509996   12.46966536297351
C    -27.32358241051095   -1.9895469948065974   10.333699638376192
C    -26.15057595514371   -2.216763619234   10.345216774538589
C    -24.252841613500447   -2.437169913853027   6.779165027396743
C    -24.926939288878316   -2.334046146743746   5.569941071128012
C    -26.292101495764864   -2.5796513359534483   5.513139484811013
C    -26.983155940628464   -2.928382041371767   6.665533770673498
C    -26.308958570070125   -3.028919047695591   7.874847964394055
C    -24.94383226807395   -2.7840366349030843   7.931628553414308
H    -24.388342184017286   -2.0622511159591017   4.671559892097964
H    -26.81756572268672   -2.499217204865074   4.57056292273457
H    -28.04732958484565   -3.1197182158340975   6.6212744687517056
H    -26.84417952404866   -3.199299607397032   8.776933517204707
C    -18.04411471327789   -2.9576367962556263   10.452255645382925
C    -18.714739300205174   -2.917923493211766   9.23869833487816
C    -20.145448275938975   -3.0739532423629856   11.616238287973419
C    -18.79190223565309   -2.613305231424525   11.674532553442944
H    -16.95536609709848   -3.036793266749202   10.462893773566337
C    -17.669593840630505   -2.316085609284075   13.785059896507295
C    -18.226342109458315   -2.4632941249208513   12.738128570557013
C    -22.226057219505257   -3.0658474931715376   12.814992777605763
C    -22.938757212496242   -3.179389653949537   14.000923492876847
C    -22.281613022553323   -3.518026345603826   15.175956634952389
C    -20.91179790467354   -3.743125948057845   15.165063859418265
C    -20.19930623472751   -3.627009491726081   13.979330671863497
C    -20.856384556662864   -3.289092012555147   12.804247224656581
H    -24.006561742334362   -3.003982490128585   14.009522091413501
H    -22.837152974212422   -3.6064823144753233   16.100393643231467
H    -20.399534359896517   -4.006980985668113   16.081033587264734
H    -19.139259036299187   -3.7015015013815504   13.978854338659175
C    -22.10313475271053   -2.1580122347802   5.66739373719601
C    -22.826289953673026   -2.4325242522524455   6.818795290301535
C    -20.04957968127054   -2.543358077324847   6.858363090139047
C    -20.678559015146853   -1.8067928019240047   5.805016856855813
H    -22.63104078368673   -2.005793843879778   4.724050083082897
C    -19.406882078597953   -0.9841736891299797   3.931950689455057
C    -20.03769245757039   -1.3920202820839402   4.861167351795581
C    -17.97870824930489   -2.7990402983707723   8.046693734253402
C    -16.593381436395838   -2.8886813247029095   8.056637151182482
C    -15.890694570040203   -2.9116902341512056   6.859591647359212
C    -16.57331585726494   -2.8450684081424744   5.652623689506685
C    -17.95842245768054   -2.7529520186703795   5.643410681415833
C    -18.66117040178552   -2.730632385829396   6.840243340074672
H    -16.061166724206046   -2.9406608109653933   8.997431366776919
H    -14.810834689142986   -2.9815143012634335   6.867345090137979
H    -16.02555627346969   -2.8628866593054036   4.719523528325192
H    -18.481877889828755   -2.603796215544266   4.730724368250183
C    5.108547710482014   0.8894155601528582   6.7725379926039375
C    3.720428766763308   0.9087540479110365   6.768454711999472
C    3.031051810784703   1.0001310122470812   5.566944893789734
C    3.7297741798257   1.072158652428458   4.36953829807897
C    5.117893446450874   1.052810021781697   4.373631428431788
C    5.807270079523012   0.9614432003342341   5.575131396893172
C    7.201202528005945   1.109791136078642   3.1823857908185325
C    5.814207150537485   1.1252981333373195   3.176126012327641
C    7.194211947273895   0.9387474895266747   5.581277837620171
C    7.888024974870179   0.591658594568526   4.378849263327211
H    7.745301981634289   1.280075950322672   2.251412465516437
C    10.264345024150625   0.19755786162374012   4.384228745266279
C    9.085545584856675   0.39282412752940254   4.381554704448072
C    7.222779665143768   0.6428224177032844   7.964054336369835
C    7.912995503975985   0.585281216057294   9.167198496329538
C    9.271537394122905   0.8687382401838804   9.20230160837874
C    9.939853631721714   1.2097385787772323   8.034288716156746
C    9.249607371083938   1.2646898940296476   6.831113310877063
C    7.891081978967173   0.9819566406373763   6.796014618785732
H    7.392122706910033   0.31951616304269637   10.077752497381734
H    9.809566910029975   0.8238355801057007   10.140140011156682
H    10.998869599396627   1.4305807302400713   8.061636236296675
H    9.769817788687593   1.4289284823797845   5.9191614717951095
C    0.9612637706475813   0.9127846982434158   4.354163859468854
C    1.646334821862626   0.9186194854409704   5.560264783502609
C    3.0454306824334054   1.0591826687061308   3.163028364441332
C    1.7043228245679254   0.5610944202037474   3.1310986789264517
H    -0.12928363939402532   0.9623684628686762   4.354676267468103
C    0.5668180496105294   0.18607068387435594   1.041198827908601
C    1.131110690584887   0.3718748981593808   2.0779026392601736
C    5.111869394646702   1.0798904121766548   1.940157216830808
C    5.8078311552905095   1.1856702335707465   0.7436152740581052
C    5.128550702425053   1.4798091066537362   -0.43081078576114784
C    3.753337349691588   1.6681738998483542   -0.40870015700213336
C    3.0576515063699907   1.5598225039171085   0.7876993522104028
C    3.736847154971426   1.266401766380081   1.96216041733364
H    6.879840808387611   1.0388962837352702   0.7262706992391952
H    5.67104452270956   1.5622140113322616   -1.363518009509529
H    3.2238212917614977   1.8973417177849587   -1.3241939134676433
H    1.996044864831108   1.6057683783535666   0.7990863866960103
C    5.09409485653948   0.3312003090551796   9.10720640230253
C    5.7965246270407205   0.5989137171685934   7.941462958169351
C    3.017559193324733   0.6341008580680728   7.932370777094522
C    3.6781235672144623   -0.06123419616598569   8.994371513837569
H    5.63652312172291   0.21464082814647378   10.047386135313838
C    2.450415331643155   -0.8751233355939922   10.900298653100057
C    3.059419914635858   -0.4716091089448699   9.95478616245786
C    0.9272654841365319   0.8070119951540287   6.763274735859436
C    -0.460008856833915   0.8591128474725194   6.767765590963069
C    -1.149544897387988   0.8903207114887992   7.972249836724201
C    -0.4518257636190802   0.8694370310395214   9.172222262665501
C    0.9352874604843695   0.8148398800813643   9.167059136972993
C    1.6248682298937585   0.7843273300173936   7.962771547343483
H    -1.003993169699355   0.8754372680263318   5.8324246351564595
H    -2.230921518105739   0.9308822505615992   7.975749023411407
H    -0.9893310537299497   0.8936461039832251   10.111123719902102
H    1.4728388537716854   0.7005270156725725   10.076575721701989
C    -0.8193438714376203   -3.0444097501220537   15.977844591387003
C    0.5687750722810839   -3.0637482378802328   15.981927871991468
C    1.25815202825969   -3.155125202216277   17.183437690201206
C    0.559429659218693   -3.227152842397654   18.380844285911973
C    -0.8286896074064817   -3.207804211750893   18.376751155559152
C    -1.5180662404786185   -3.1164373903034304   17.175251187097768
C    -2.911998688961551   -3.2647853260478383   19.56799679317241
C    -1.525003311493092   -3.280292323306516   19.5742565716633
C    -2.905008108229502   -3.0937416794958703   17.169104746370767
C    -3.5988211358257853   -2.7466527845377215   18.37153332066373
H    -3.4560981425898953   -3.435070140291868   20.498970118474503
C    -5.97514118510623   -2.352552051592936   18.36615383872466
C    -4.796341745812282   -2.547818317498598   18.36882787954287
C    -2.9335758260993745   -2.7978166076724804   14.786328247621107
C    -3.623791664931592   -2.7402754060264907   13.583184087661405
C    -4.982333555078512   -3.0237324301530766   13.5480809756122
C    -5.650649792677321   -3.364732768746428   14.716093867834195
C    -4.960403532039545   -3.419684083998844   15.919269273113878
C    -3.6018781399227793   -3.136950830606572   15.95436796520521
H    -3.10291886786564   -2.4745103530118926   12.672630086609205
H    -5.520363070985582   -2.9788297700748965   12.610242572834261
H    -6.709665760352234   -3.585574920209267   14.688746347694265
H    -5.4806139496432005   -3.5839226723489803   16.83122111219583
C    3.327940068396811   -3.0677788882126116   18.396218724522086
C    2.6428690171817673   -3.0736136754101664   17.190117800488334
C    1.2437731566109875   -3.2141768586753274   19.58735421954961
C    2.5848810144764665   -2.716088610172944   19.61928390506449
H    4.4184874784384185   -3.117362652837872   18.395706316522837
C    3.722385789433862   -2.341064873843552   21.70918375608234
C    3.158093148459506   -2.526869088128577   20.672479944730764
C    -0.82266555560231   -3.234884602145851   20.810225367160132
C    -1.5186273162461172   -3.3406644235399425   22.006767309932837
C    -0.8393468633806619   -3.634803296622932   23.181193369752087
C    0.535866489352805   -3.82316808981755   23.159082740993075
C    1.2315523326744025   -3.7148166938863048   21.962683231780538
C    0.5523566840729672   -3.421395956349277   20.788222166657302
H    -2.5906369693432176   -3.1938904737044664   22.024111884751747
H    -1.3818406836651662   -3.717208201301457   24.113900593500468
H    1.0653825472828955   -4.052335907754154   24.074576497458583
H    2.293158974213285   -3.7607625683227623   21.951296197294933
C    -0.8048910174950873   -2.486194499024376   13.64317618168841
C    -1.5073207879963264   -2.7539079071377897   14.808919625821588
C    1.2716446457196602   -2.7890950480372694   14.81801180689642
C    0.6110802718299306   -2.09375999380321   13.756011070153372
H    -1.3473192826785194   -2.3696350181156705   12.702996448677103
C    1.838788507401238   -1.2798708543752035   11.850083930890884
C    1.2297839244085345   -1.683385081024326   12.79559642153308
C    3.361938354907861   -2.9620061851232253   15.987107848131505
C    4.749212695878307   -3.014107037441715   15.982616993027872
C    5.43874873643238   -3.045314901457995   14.77813274726674
C    4.741029602663474   -3.024431221008717   13.578160321325441
C    3.3539163785600232   -2.9698340700505605   13.583323447017946
C    2.6643356091506347   -2.9393215199865894   14.787611036647458
H    5.293197008743748   -3.0304314579955274   16.91795794883448
H    6.520125357150132   -3.0858764405307952   14.774633560579534
H    5.278534892774344   -3.0486402939524213   12.63925886408884
H    2.8163649852727075   -2.8555212056417685   12.673806862288952
C    -12.329688990666748   -1.5548112309403914   20.74406890718791
C    -13.717760058573491   -1.535290911088883   20.73213074346228
C    -14.399718243325387   -1.3990013945204753   19.53064234059547
C    -13.6936250995382   -1.2822437721510622   18.341111502275012
C    -12.30555376755605   -1.3017745963345142   18.35305913116174
C    -11.623595846879564   -1.4380536085709783   19.554538068867455
C    -10.21493541834377   -1.2003259666975872   17.17768138792739
C    -11.601868724490217   -1.1845530536716828   17.163431881761465
C    -10.236713906775114   -1.4610059592455702   19.568405020717208
C    -9.535414888272049   -1.7628833488292284   18.3581441303111
H    -9.665128197146405   -0.9953440254965296   16.25711260227066
C    -7.1590944146324045   -2.1569823210278365   18.363464827524066
C    -8.337893984023548   -1.9617165609030123   18.360811282556735
C    -10.222810144320919   -1.8458780491774116   21.938572053947734
C    -9.54002997994901   -1.948416671199736   23.142964781358895
C    -8.181787820345715   -1.666513223448651   23.197046777516896
C    -7.506335813035981   -1.282070095498761   22.04676420008248
C    -8.189145685932516   -1.1821183763935987   20.842243160596134
C    -9.5473715203499   -1.4632987260873949   20.788192763247096
H    -10.06646566343699   -2.2480487030440206   24.039700104407306
H    -7.649554325860406   -1.746490871815643   24.13585664202835
H    -6.447553368469692   -1.0624383044314982   22.088901759833682
H    -7.66334336176815   -0.983889397435455   19.940308275420858
C    -16.461955631140974   -1.4408459330416064   18.302670134979792
C    -15.784351141315316   -1.4801634146653015   19.512356920853097
C    -14.370498089417302   -1.2500472056093554   17.13075330933458
C    -15.711283093941784   -1.7465508609069258   17.071919760570086
H    -17.552495316235866   -1.391282596542466   18.29829557979984
C    -16.83577773865246   -2.043081940785712   14.962459541502493
C    -16.277938783567187   -1.8962141876692058   16.008858005978926
C    -12.296547100374918   -1.1836627380462794   15.922311335904261
C    -11.593226626884043   -1.0332088351547521   14.734890307633272
C    -12.265296530101429   -0.695313055419535   13.568114978997668
C    -13.640658015272583   -0.5078652453864116   13.588755821455532
C    -14.343701180674502   -0.6608836013702821   14.775940008326286
C    -13.671716440480738   -0.9980630555557213   15.94277666202218
H    -10.521100840866637   -1.1792639460327916   14.718693811028
H    -11.71706656569384   -0.5780845646280564   12.642515570145886
H    -14.16455324968927   -0.24458776707356816   12.679221481653183
H    -15.405367112921889   -0.6153633780265142   14.782475057185243
C    -12.358455099535762   -2.199988520789176   23.056082858364157
C    -11.648889529322902   -1.8888669666002416   21.90553694055072
C    -14.427752739833059   -1.8532790014320957   21.880588224390813
C    -13.77362340354935   -2.5878829876567573   22.91989255391978
H    -11.821823029160557   -2.3516605524246366   23.994578506563563
C    -15.012921288786643   -3.4724762376316627   24.78640717665676
C    -14.398167139011731   -3.0338861925806415   23.860437257657534
C    -16.510817545812053   -1.6366822021617977   20.70588041124354
C    -17.898103578791375   -1.5847432920060884   20.703741248047407
C    -18.59507501464749   -1.5986027945919967   21.904264014210113
C    -17.904779456135493   -1.6643911209996207   23.10690522369983
C    -16.51764988223255   -1.7187994234031645   23.10827820429915
C    -15.820635072990942   -1.704252453141608   21.907978244647232
H    -18.436301453763274   -1.5334171333765332   19.76632096035603
H    -19.676460730243754   -1.558167400099226   21.90259321471795
H    -18.448080650086006   -1.6753122017435718   24.04271423474765
H    -15.985705578770055   -1.8670789775376593   24.016186669471193
C    -18.313556081221037   -5.830123506978775   29.758922724155166
C    -16.925485013314297   -5.849643826830283   29.7708608878808
C    -16.243526828562402   -5.985933343398692   30.972349290747612
C    -16.94961997234959   -6.102690965768104   32.161880129068074
C    -18.337691304331738   -6.083160141584652   32.14993250018134
C    -19.019649225008227   -5.9468811293481885   30.948453562475624
C    -20.42830965354402   -6.184608771221579   33.32531024341569
C    -19.041376347397573   -6.200381684247485   33.339559749581625
C    -20.406531165112675   -5.923928778673596   30.93458661062587
C    -21.107830183615736   -5.622051389089939   32.14484750103198
H    -20.978116874741385   -6.389590712422637   34.24587902907242
C    -23.48415065725539   -5.22795241689133   32.13952680381902
C    -22.30535108786424   -5.423218177016153   32.14218034878635
C    -20.420434927566866   -5.539056688741755   28.56441957739535
C    -21.10321509193878   -5.43651806671943   27.36002684998419
C    -22.461457251542075   -5.718421514470515   27.305944853826183
C    -23.13690925885181   -6.102864642420406   28.456227431260597
C    -22.454099385955274   -6.202816361525569   29.660748470746952
C    -21.09587355153789   -5.9216360118317715   29.714798868095983
H    -20.576779408450797   -5.136886034875145   26.463291526935777
H    -22.993690746027383   -5.638443866103524   26.36713498931473
H    -24.1956917034181   -6.322496433487669   28.414089871509397
H    -22.979901710119638   -6.401045340483711   30.562683355922225
C    -14.181289440746816   -5.944088804877559   32.20032149636329
C    -14.858893930572473   -5.904771323253865   30.99063471048998
C    -16.272746982470483   -6.134887532309812   33.3722383220085
C    -14.931961977946003   -5.63838387701224   33.43107187077299
H    -13.090749755651919   -5.9936521413767005   32.20469605154323
C    -13.807467333235326   -5.341852797133455   35.54053208984058
C    -14.365306288320602   -5.48872055024996   34.49413362536414
C    -18.34669797151287   -6.201271999872887   34.58068029543882
C    -19.050018445003737   -6.351725902764414   35.768101323709814
C    -18.37794854178636   -6.689621682499631   36.93487665234541
C    -17.002587056615205   -6.877069492532756   36.91423580988755
C    -16.299543891213286   -6.724051136548885   35.72705162301679
C    -16.971528631407047   -6.386871682363444   34.560214969320896
H    -20.12214423102115   -6.205670791886376   35.784297820315075
H    -18.92617850619395   -6.806850173291111   37.8604760611972
H    -16.478691822198517   -7.140346970845598   37.8237701496899
H    -15.237877958965893   -6.769571359892652   35.720516574157834
C    -18.284789972352026   -5.18494621712999   27.44690877297892
C    -18.994355542564886   -5.496067771318924   28.59745469079236
C    -16.215492332054726   -5.53165573648707   28.62240340695227
C    -16.86962166833844   -4.797051750262408   27.583099077423302
H    -18.821422042727228   -5.0332741854945295   26.508413124779516
C    -15.630323783101144   -3.912458500287505   25.716584454686316
C    -16.245077932876058   -4.351048545338525   26.64255437368554
C    -14.132427526075736   -5.748252535757369   29.79711122009954
C    -12.74514149309641   -5.800191445913078   29.799250383295668
C    -12.048170057240291   -5.786331943327169   28.59872761713297
C    -12.738465615752295   -5.720543616919545   27.396086407643253
C    -14.125595189655236   -5.666135314516002   27.394713427043932
C    -14.822609998896846   -5.680682284777558   28.595013386695854
H    -12.206943618124512   -5.851517604542633   30.736670670987053
H    -10.96678434164403   -5.826767337819941   28.60039841662513
H    -12.195164421801781   -5.709622536175594   26.46027739659543
H    -14.657539493117731   -5.517855760381507   26.48680496187189
H    -3.498493740234558   2.1365042949566613   -21.6548663142932
H    7.748799158702777   1.8964713518488971   -17.316739298584483
H    -21.01341561849438   0.6244094031410761   -7.799881362215764
H    -28.382772856260253   -1.7848739347840872   10.323285980500506
H    11.328753028837149   0.021735049120252203   4.386646243673501
H    4.231971518126629   -2.1737819775144263   22.645251447995875
H    -13.303708714818827   -5.2097263392463375   36.48533564594801
H    -24.548558661941914   -5.052129604387843   32.13710930541179
