132
Coordinates from ORCA-job cmy_triplet_uks_cam_b3lyp_631gdp_
  C   3.08908826504387     -0.12019853367626     -0.21857609154681
  C   0.31168679558388     -2.51818410884855     -0.43109696998461
  C   0.16894685399208     -3.83576681408884     -0.92054256941355
  H   1.00130675644586     -4.52164135997233     -0.85146913661545
  C   -0.96580877380309     -4.25075640000826     -1.57397333515460
  H   -1.00761573040356     -5.26973429888891     -1.94508405535421
  C   -2.02429076387733     -3.36249338523392     -1.83384033540856
  H   7.59579737937366      3.68858295796699      0.08775275058813
  C   -1.88803556133941     -2.06927045626948     -1.36700915713545
  H   -2.64851146308151     -1.34590102093699     -1.61529760922136
  C   -0.76788315590916     -1.62342070171703     -0.63085724001369
  H   3.89623134269232     -7.05059640000748      1.19283921867159
  C   7.04064379004339      1.34223403300565     -1.25253366013187
  C   4.20980753620443     -0.93254456450830     -0.17453095448398
  C   4.03590196934139     -2.28669389275776      0.23311306015640
  C   5.16629530046406     -3.10907544011480      0.53067510093680
  C   2.72718552698376     -2.82200132793185      0.36280420263848
  C   2.58363834696251     -4.11873520291799      0.90717472919002
  C   1.59163666527983     -2.00196516255873      0.01987145800216
  H   3.20224374621939      0.93010827354413     -0.44112826341047
  C   1.77901922503914     -0.61053771544007     -0.02723243128981
  C   0.61772965933492      0.26835079920082      0.07747133242590
  H   6.21608711219283      4.47280656846767     -2.54962279587450
  C   8.13981017830033      0.50921618330243     -0.94901206347783
  C   7.96107561335264     -0.74940535683917     -0.43577814776587
  H   8.81794259796244     -1.37743634332829     -0.22033442630183
  C   6.66850806366130     -1.26204150999014     -0.18208371863357
  H   9.08885266299225      3.09867663010444     -0.65021706509905
  C   5.55286069943263     -0.43537685163647     -0.45446723516171
  H   4.00091648083694     -6.35574971988492      2.80773377272331
  C   5.77548706706587      0.84590008466330     -0.99477815017173
  H   4.91664839573191      1.45578633284899     -1.23710408319420
  C   6.48009016493339     -2.58538102693213      0.33609892065545
  C   4.95810125887460     -4.40621236568822      1.02270933712003
  C   8.12366451825506      3.56531385341891     -0.86234352639956
  C   7.60899052480041     -3.38626610876818      0.63979623331729
  C   3.67618002410047     -4.90450669646163      1.24303280415266
  H   1.58984337670444     -4.48986277163332      1.12530595977775
  H   5.82323807252265     -5.01571153574052      1.26113188590096
  C   3.48745444741928     -6.27261165144305      1.84529118427998
  H   2.26658597206811      3.49563189707571      4.48433699457879
  C   2.74032786104385      4.31931699828952      3.94295933648535
  H   2.01961728108369      5.13876816397432      3.88355628215672
  H   4.64828268563859      2.40064786421808      1.77681868554884
  C   4.25544104556969      2.75885874337896      2.73308573467255
  C   3.87513601036979      5.04565693921945      1.82504736327865
  H   3.85227351545125      1.90139087871139      3.27917566733870
  H   5.09868221068044      3.14779781980299      3.31082523479976
  H   3.59349642321541      4.66785437802100      4.53347002571673
  H   8.31807717183111      4.56012366463600     -1.27552967591361
  H   -3.94453255399631      6.30647658684716     -2.94219213371577
  H   -2.51252327545253      6.58128252483990     -1.94467164512044
  H   -4.11310137601470      7.04530152272547     -1.35256058603957
  C   -3.23402801419693     -3.83239317669231     -2.64804263570606
  C   -2.76610784600115     -4.28553740153137     -4.04325754050784
  H   -3.61857734150077     -4.63346481521256     -4.63513534754126
  H   -2.29264690402231     -3.46026289232586     -4.58246399249497
  C   -3.90166306517222     -5.01758551818252     -1.92764907819455
  H   -2.04472839409501     -5.10450369681112     -3.98515209184741
  H   -4.76274648894351     -5.37402277958075     -2.50169210329394
  C   -4.28306222990846     -2.72898121942401     -2.83005261335907
  H   -3.21514072604592     -5.85871759095900     -1.80198545335932
  H   -4.25433244731875     -4.72334778315685     -0.93454716091221
  H   5.35664925015035      2.96341147354132     -2.85668371044002
  H   -4.67558985131858     -2.37323522026427     -1.87274520383598
  H   -3.88055723324955     -1.87012933015701     -3.37443814329561
  H   -5.12625278012736     -3.11720779405684     -3.40832128001974
  C   7.28749001446975      2.73085039682118     -1.84957133710026
  C   8.05683990195946      2.58635932528228     -3.17565233972589
  H   9.02059659282203      2.09073137690113     -3.03542973087893
  H   7.48196828122336      2.00051971357141     -3.89853295966995
  C   5.98526990012877      3.48882248318483     -2.13228517348477
  H   8.24964388411318      3.57155994027730     -3.61202476661079
  H   5.40054407524805      3.64659583615695     -1.22114841381432
  H   9.42133613078602     -4.67045481564175      1.12782731351643
  C   8.57129786846083     -4.06972257279387      0.90025410641644
  C   -8.62406910567938      4.06289840517550     -0.90544112912031
  H   -9.47836431505558      4.66075037239308     -1.12449054486468
  H   -7.60446146623322     -3.69408692421049     -0.12668195506530
  C   -3.11280942184382      0.13587803353107      0.14112072505575
  C   -0.34258717210703      2.54321219186934      0.33996535991105
  C   0.73933640491556      1.64977076486160      0.53717911047234
  C   3.20709128037430      3.86258357906105      2.54851556946762
  C   1.86045198572555      2.09792544479064      1.27051880470084
  H   2.62175116257186      1.37562158731012      1.51896853156229
  C   1.99657769956165      3.39159391057690      1.73598636386946
  H   -5.33453393917316     -2.96497962545768      2.79339384950736
  C   0.93714255970509      4.27879836029220      1.47661182003033
  H   0.97900973670062      5.29846117297289      1.84584747657547
  C   -0.19893482452234      3.86174445298324      0.82670876953885
  H   -1.03198619144955      4.54684492332243      0.75922872650717
  C   -7.04475952911432     -1.34763349176959      1.21296641044579
  C   -4.23697349556711      0.94338449518424      0.11089092885541
  C   -4.07246292498037      2.29942219322226     -0.29420375705589
  C   -5.20993139897674      3.11713923813356     -0.57686923570777
  C   -2.76721906999913      2.84129134932460     -0.43537510725617
  C   -2.63601106659108      4.14030816430078     -0.97766039430902
  C   -1.62460477993270      2.02512603148441     -0.10379673765272
  H   -3.21888452245074     -0.91574877956664      0.36075428032335
  C   -1.80677709567351      0.63302803966155     -0.05880745292947
  H   2.43042176336383     -6.49405532233247      2.00781549815700
  H   -8.30691514216510     -4.57160682876911      1.24309100734207
  C   -8.15115647958548     -0.51875422249601      0.92463054664447
  C   -7.98402532236123      0.74231798338846      0.41335896158209
  H   -8.84612378607248      1.36710225515758      0.20967251258395
  C   -6.69674482808182      1.26165205416832      0.14668190892260
  H   -6.18997310627240     -4.47765553329739      2.49148852261478
  C   -5.57450126898839      0.43926024844521      0.40370290966650
  H   9.15007473144598      0.86052087758899     -1.13136973908868
  C   -5.78499749235976     -0.84468988216232      0.94235458700634
  H   -4.92070081579436     -1.45127528279494      1.17315861516495
  C   -6.51934613950638      2.58738279663255     -0.36920878863438
  C   -5.01316484996313      4.41673751866185     -1.06683550352456
  C   -5.96868789141577     -3.49133280460059      2.07451862163425
  C   -7.65483226274331      3.38444397541421     -0.65791674982793
  C   -3.73636079582371      4.92106602510899     -1.30106433673819
  H   -1.64642688248690      4.51791913800672     -1.20385530627726
  H   -5.88355356522685      5.02365907475503     -1.29222866507708
  C   -3.56353742007109      6.28563982845940     -1.91627439965733
  C   -8.03194980494091     -2.60160115135455      3.14453673975579
  C   -7.27781822819397     -2.73901260056513      1.80903371310431
  H   -7.45168075291039     -2.01411921041313      3.86174611555209
  C   -8.12168957627726     -3.57508926492848      0.82978509858151
  H   -9.00008401027240     -2.11105844168935      3.01699206322215
  H   -9.15765955380609     -0.87525803704506      1.11743097661412
  H   4.73661689861362      5.40302099203339      2.39793127864444
  H   -8.21399894214608     -3.58880170235059      3.58102624371061
  C   -0.64449360253364     -0.24285608370069     -0.16948944242465
  H   -5.39326958657376     -3.64363340423858      1.15650353111557
  H   4.22723883940348      4.74893312455702      0.83251973055718
  H   -9.09132815879082     -3.11229882918559      0.62986955238633
  H   3.18889600365215      5.88676590711318      1.69766622690593
