136
Coordinates from ORCA-job ome_singlet_uks_cam_b3lyp_631gdp_brsym
  C   2.53383300890623     -0.74546941174643      0.42136091272357
  C   0.15930770358509     -3.45171342322985     -0.76232501204348
  C   -0.48928090275168     -4.32026843592736      0.11276961368243
  H   -0.07010951735339     -4.49230511616424      1.09960279911687
  C   -1.66878512694064     -4.96275587147008     -0.25464100294878
  H   -2.13902662969433     -5.62415408228111      0.46307544972866
  C   -2.24280358372457     -4.76694784475826     -1.51093591310891
  H   7.02066063765467      4.65469318335923      1.66597206545257
  C   -1.57985324799157     -3.89941293364227     -2.38656801056377
  H   -1.98720957082514     -3.71730255699302     -3.37604013660721
  C   -0.40721288828689     -3.25429745867825     -2.02413788651248
  H   0.07759611429123     -2.58145521647907     -2.72471834605220
  C   6.13415801921398      1.30602446276868      1.70817052290578
  C   3.77334286128422     -1.37364871764870      0.42900902353955
  C   3.84080129005829     -2.73042077471860      0.01478010447237
  C   5.09090724970064     -3.42722565402015     -0.02325592182609
  C   2.65281091382644     -3.41666150088222     -0.36851597687346
  C   2.74705832363408     -4.77362303303118     -0.77712136394463
  C   1.40407613567844     -2.73529993317182     -0.35648612405518
  H   2.45356185292503      0.27952574099484      0.75540756430793
  C   1.35217752853089     -1.39021432854143      0.02133851033920
  C   0.07209611822606     -0.66723249488693      0.01714294423848
  H   7.70792267488223      2.40755472528943      3.70142309008242
  C   7.35516609132584      0.60140144396510      1.63272969812904
  C   7.40216679241339     -0.69539670063131      1.19148530668999
  H   8.34867156406179     -1.22147727251019      1.14385809214333
  C   6.23052255021505     -1.37972340451109      0.79569854350214
  H   8.04315268781649      3.26534212137114      1.28646553469069
  C   4.99626027602423     -0.69005916606319      0.84903200711652
  H   4.52452204039505     -7.50398291243816     -0.50064100003017
  C   4.98893290392011      0.64024957675745      1.31095910513319
  H   4.04468277531205      1.16230563701383      1.36097997078260
  C   6.28129348603249     -2.74341766831316      0.35624381492557
  C   5.11660504553015     -4.76842328962248     -0.43619737141986
  C   7.00961611925134      3.61991072731968      1.30865897181060
  C   7.52770680977779     -3.41824646880893      0.30950633228003
  C   3.95439811958447     -5.44608285490605     -0.81147827328840
  H   1.84181867865817     -5.28959664160146     -1.07448317425385
  H   6.07111493320532     -5.28324615058044     -0.46125065739447
  C   4.03085622131016     -6.88374682866975     -1.25485913399432
  H   2.86157351088249      5.74610063319795     -4.02267910171246
  C   3.25465465528318      6.33143782249677     -3.18768993247367
  H   4.17278223594171      6.82166259429340     -3.52672657828381
  H   3.44646234787137      7.14380492253072     -0.57051390129113
  C   4.13196182872866      6.34126202505958     -0.85798599997381
  C   4.58536219918172      4.38315398901692     -2.32716672143550
  H   5.05211239604798      6.80808926511940     -1.22029244820482
  H   4.38480081047675      5.76773747691162      0.03849075848879
  H   2.52224352999427      7.10840832097916     -2.95003390210329
  H   6.63471346510839      3.61912453416695      0.28103482301191
  H   -4.52535397683640      7.50139933896835     -0.51596359622159
  H   -4.60650035391246      6.97566735726799     -2.19475612593015
  H   -3.03637167719322      7.29434725236403     -1.44803409301191
  C   -3.53964835660693     -5.45363751524795     -1.95349738373990
  C   -3.25386124476341     -6.33426426919756     -3.18302153357818
  H   -2.86041863948343     -5.74932860485495     -4.01812171652130
  H   -2.52162539490529     -7.11121694161105     -2.94476977814131
  C   -4.13200742412431     -6.34297247260573     -0.85363224220915
  H   -4.17193060158244     -6.82452062904250     -3.52216961092453
  H   -4.38502325476357     -5.76904726514485      0.04253825600063
  C   -4.58461099721179     -4.38543571500311     -2.32383059391711
  H   -5.05212955746145     -6.80977554852788     -1.21604324191941
  H   -3.44675461578171     -7.14553256556177     -0.56561577419127
  H   6.69009908196939      3.81186219126165      4.03418847637707
  H   -4.24718051340295     -3.75267327341967     -3.14840891189992
  H   -5.52135552409314     -4.86045795494327     -2.63220890822801
  H   -4.79856066026742     -3.73296543790751     -1.47217379582427
  C   6.12468347235015      2.74978501743485      2.21982070570381
  C   4.71616570486942      3.35488381002381      2.24223249786028
  H   4.76707515837561      4.38453522006477      2.60832901771946
  H   4.26150306046369      3.38009899508478      1.24735477015122
  C   6.68360635870982      2.78523818617972      3.65431234457685
  H   4.04716514355470      2.80244301998176      2.90841361229905
  H   6.07190141092156      2.17689598301408      4.32666438853537
  H   9.52640493051396     -4.50032095003467      0.23728396286254
  C   8.58990853837283     -3.99334507259542      0.27138611840012
  C   -8.59062913162196      3.99142688484324      0.25801175981216
  H   -9.52716857290025      4.49822126739022      0.22242558979136
  H   -7.02140510256171     -4.65380241878805      1.67152383533202
  C   -2.53421030361339      0.74471163658524      0.41853357583352
  C   -0.15907275151531      3.44959540912899     -0.76705789853839
  C   0.48917589085634      4.31847216854368      0.10796471565137
  H   0.06964489713170      4.49083895475188      1.09458641365749
  C   1.66877003434122      4.96089482797045     -0.25926290632535
  H   2.13871993147126      5.62258575569829      0.45837499775091
  C   2.24321201797873      4.76469142874216     -1.51530011303775
  H   -4.04841364356364     -2.79871942333576      2.91071615284235
  C   1.58064491395971      3.89676124972577     -2.39083304289550
  H   1.98836774727590      3.71430840506095     -3.38009135979178
  C   0.40791206835291      3.25170347573329     -2.02858070341304
  H   -0.07662129307147      2.57858339354946     -2.72908717413743
  C   -6.13513397727409     -1.30494138089582      1.70653383238721
  C   -3.77380832826288      1.37273327478686      0.42417525739331
  C   -3.84113228305453      2.72881546342760      0.00768390369871
  C   -5.09131529089937      3.42535023571821     -0.03260014517124
  C   -2.65290372184541      3.41463936195227     -0.37560152865789
  C   -2.74697652370729      4.77096691751337     -0.78634409154279
  C   -1.40408250686195      2.73348801881639     -0.36140197496349
  H   -2.45409342485007     -0.27973787772678      0.75427580387840
  C   -1.35231271010195      1.38897974854331      0.01844426764647
  H   3.03664550874514     -7.29804018813668     -1.43472125930164
  H   -8.04389044041631     -3.26541996751314      1.28855320742540
  C   -7.35619371855673     -0.60064248417260      1.62893333410535
  C   -7.40309402749081      0.69529868400255      1.18515922592939
  H   -8.34964476539240      1.22114898924270      1.13591608384225
  C   -6.23127449507868      1.37906704216312      0.78892134199837
  H   -4.76815386874614     -4.38145835021980      2.61366234063803
  C   -4.99695127579624      0.68968400844422      0.84441027999912
  H   8.27898079012080      1.08620040247582      1.93109693079299
  C   -4.98974860339879     -0.63977178720968      1.30878130960863
  H   -4.04545631875650     -1.16159144248230      1.36042477403389
  C   -6.28191737566936      2.74197130218325      0.34700510257471
  C   -5.11685799817401      4.76587370234741     -0.44773390125490
  C   -4.71717080021295     -3.35256438080261      2.24545497003500
  C   -7.52839584794351      3.41651889559785      0.29806298326799
  C   -3.95440311795278      5.44315128643070     -0.82294541792101
  H   -1.84152613697382      5.28664754256901     -1.08357838897185
  H   -6.07143070078462      5.28049443960079     -0.47449611477049
  C   -4.03068953024950      6.88010394265529     -1.26865263163792
  C   -6.68504175567783     -2.77979233788306      3.65571376709426
  C   -6.12571823141228     -2.74759121544740      2.22129876719717
  H   -6.07358011605909     -2.16982032096051      4.32681295497910
  C   -7.01032839868077     -3.61983733284088      1.31185342009196
  H   -7.70939622608642     -2.40206075503930      3.70163142773311
  H   -8.28012705651910     -1.08498318600513      1.92768226465436
  H   5.52214515522840      4.85816183781852     -2.63544855405944
  H   -6.69156539487408     -3.80552857800204      4.03798456658985
  C   -0.07216771662437      0.66609283949759      0.01614137835603
  H   -4.26217767132442     -3.37981171461627      1.25078175360868
  H   4.79911328777717      3.73112946444121     -1.47512045817036
  H   -6.63512523062860     -3.62137474432328      0.28433900699410
  H   4.24829392439150      3.74995277651264     -3.15155788738454
  C   3.54012086509245      5.45137498060746     -1.95768377917478
  H   4.60769722329863     -6.98088423136769     -2.18015708854531
  H   0.81218705439440      1.29227579390866     -0.02705469988189
  H   -0.81226103212181     -1.29343190284422     -0.02565169080315
