25

C 0.000000 0.000000 0.000000
F -1.016935 -0.752462 0.356346
F -0.445577 1.099843 -0.564930
F 0.709404 0.309492 1.062215
C 0.687624 -0.599753 -0.779404
F 1.704559 0.152709 -1.135751
F 1.133200 -1.699595 -0.214471
C 0.039905 -0.882333 -1.749254
F -0.977029 -1.634795 -1.392907
F -0.405671 0.217510 -2.314184
C 0.727529 -1.482086 -2.528658
F 1.744464 -0.729624 -2.885005
F 1.173106 -2.581928 -1.963725
C 0.079811 -1.764666 -3.498508
F -0.937124 -2.517128 -3.142161
F -0.365766 -0.664823 -4.063438
C 0.767435 -2.364419 -4.277911
F 1.213011 -3.464261 -3.712979
C 0.119716 -2.646999 -5.247761
F -0.897750 -3.411431 -4.820787
F -0.420949 -1.502331 -5.694538
S 1.150469 -3.504311 -6.563040
O 2.157612 -2.509638 -6.856943
O 0.178569 -3.740341 -7.607288
O 1.616914 -4.682261 -5.866178
